<?xml version="1.0" encoding="UTF-8"?>

<!-- generated on 2023-10-04 11:08:41.031958 by randomTrips.py v1_18_0+0000-03ecfdea036
<configuration>
    <net-file value="zhijiage.net.xml"/>
    <route-file value="zhijiage.rou.xml"/>
    <length value="True"/>
    <end value="600.0"/>
</configuration>
-->

<!-- generated on 2023-10-04 11:08:40 by Eclipse SUMO duarouter Version 1.18.0
<configuration xmlns:xsi="http://www.w3.org/2001/XMLSchema-instance" xsi:noNamespaceSchemaLocation="http://sumo.dlr.de/xsd/duarouterConfiguration.xsd">

    <input>
        <net-file value="zhijiage.net.xml"/>
        <route-files value="trips.trips.xml"/>
    </input>

    <output>
        <output-file value="zhijiage.rou.xml"/>
        <alternatives-output value="NUL"/>
    </output>

    <time>
        <begin value="0"/>
        <end value="600.0"/>
    </time>

    <report>
        <no-warnings value="true"/>
        <ignore-errors value="true"/>
        <no-step-log value="true"/>
    </report>

</configuration>
-->

<routes xmlns:xsi="http://www.w3.org/2001/XMLSchema-instance" xsi:noNamespaceSchemaLocation="http://sumo.dlr.de/xsd/routes_file.xsd">
    <vehicle id="1" depart="1.00">
        <route edges="-390143136#6 -390143136#5 390143136#5 390143136#6 390143136#7 -435385158#7 -435385158#6 -435385158#5 -435385158#4 -435385158#3 -435385158#2"/>
    </vehicle>
    <vehicle id="2" depart="2.00">
        <route edges="38540430#1 38540430#2 38540430#3 24081635#5 24081635#6 24081635#7 24081635#8 255368334#3 255368334#4 255368334#5 255368334#6 255368334#7 255368334#8 255368334#9 255368334#10 255368334#11 255368334#12 255368334#13 255368334#14 255368334#15 255368334#16 255368334#17"/>
    </vehicle>
    <vehicle id="3" depart="3.00">
        <route edges="586931138#0 586931138#1 586931138#2 24081636#7 24081636#8 24081636#9 24081636#10 24081636#11 24081636#12 24081636#13 24081636#14 24081636#15 24081636#16 -24081636#16 -24081636#15 -24081636#14 -24081636#13 -24081636#12"/>
    </vehicle>
    <vehicle id="4" depart="4.00">
        <route edges="1010376048#4 1010376048#5 194871936#7 194871936#8 194871936#9 194871936#10 194871936#11 194871936#12 -24088196#15 -24088196#14 -24088196#13 -24088196#12 -24088196#11 -24088196#10 -24088196#9 -24088196#8 -24088196#7 -24088196#6 -1110097395#2 -1110097395#1"/>
    </vehicle>
    <vehicle id="5" depart="5.00">
        <route edges="-38540430#13 -38540430#12 -38540430#11 38540430#11 38540430#12 38540430#13 38540430#14 -435385172#1 -435385172#0 -435385182#1 -435385182#0 -435385159#1 -435385159#0 435385247#0 435385247#1 31090878#0 31090878#1 -179077731#3 -179077731#2 179077731#0"/>
    </vehicle>
    <vehicle id="6" depart="6.00">
        <route edges="-1110097394#4 -1110097394#3 -1157564204#3 -1157564204#2 -1157564204#1 -1157564204#0 56731088#23 -24081635#12 -24081635#11 -24081635#10 -24081635#9 255368334#3 255368334#4 255368334#5 255368334#6 255368334#7 255368334#8 255368334#9 1133035282#0 1133035282#1 -1133035281#1 -1133035281#0 -435385167#1 -435385167#0 -435385172#1 -435385172#0 -435385182#1 -435385182#0 -435385159#1 -435385159#0 435385240#0 435385240#1 38744198#0 38744198#1 38744198#2 38744198#3 38744198#4 38744198#5 38744198#6 38744198#7 -38744198#7 -38744198#6"/>
    </vehicle>
    <vehicle id="7" depart="7.00">
        <route edges="24101222#3 24101222#4 -24101222#4 -24101222#3 -24101222#2 -24101222#1 -24101222#0 -1010376047#2 -1010376047#1 -1010376047#0 -435385186#5 -435385186#4 -435385186#3 -435385186#2 -435385186#1 -435385186#0 -435385162 -617218065#1 -617218065#0 -435385221 -617218067 -617214151 -617214152 -617214149 -435385232#1 -435385232#0 -617214153 -617214154 -617213539 -435385207#1 -435385207#0 24081636#0 24081636#1 24081636#2"/>
    </vehicle>
    <vehicle id="8" depart="8.00">
        <route edges="-38540430#13 -38540430#12 -38540430#11 38540430#11 38540430#12 38540430#13 38540430#14 -435385172#1 -435385172#0 -435385182#1 -435385182#0 -435385159#1 -435385159#0 435385247#0 435385247#1 31090878#0 31090878#1 31090878#2 31090878#3 31090878#4 31090878#5 31090878#6 -31090878#6 24090840#0 24090840#1"/>
    </vehicle>
    <vehicle id="9" depart="9.00">
        <route edges="435385242#0 435385242#1 435385242#2 435385242#3 435385241#0 435385241#1 435385159#0 435385159#1 435385182#0 435385182#1 435385172#0 435385172#1 435385167#0 435385167#1 1133035281#0 1133035281#1 435385184#0 435385184#1 435385184#2 435385160#0 435385160#1 435385183#0 435385183#1 435385178#0 435385178#1 435385158#0 435385158#1 435385158#2 435385158#3 435385158#4 435385158#5 435385158#6 435385158#7 435385158#8 435385158#9 435385158#10 435385158#11 435385165 435385162 435385186#0 435385186#1 435385186#2 435385186#3 435385186#4 435385186#5 1010376048#0 1010376048#1 1010376048#2 1010376048#3 1010376048#4 1010376048#5 1010376048#6 1010376048#7 1010376048#8 -1010376048#8 -1010376048#7"/>
    </vehicle>
    <vehicle id="10" depart="10.00">
        <route edges="435385240#1 38744198#0 38744198#1 38744198#2 38744198#3 -38744198#3 -38744198#2 -38744198#1 -38744198#0 -435385240#1 -435385240#0 -435385241#1 -435385241#0 -435385242#3 -435385242#2 1157564041#0 1157564041#1 1157564041#2 1157564041#3 1157564041#4 1157564041#5 1157564041#6 1157564041#7 255368334#7 255368334#8"/>
    </vehicle>
    <vehicle id="11" depart="11.00">
        <route edges="-930289890 -38540430#16 -38540430#15 435385167#0 435385167#1 1133035281#0 1133035281#1 435385184#0 435385184#1 435385184#2 435385160#0 435385160#1 435385183#0 435385183#1 435385178#0 435385178#1 435385158#0 435385158#1 435385158#2 435385158#3 435385158#4 435385158#5 435385158#6 435385158#7 435385158#8 435385158#9 435385158#10 435385158#11 435385165 435385162 435385186#0 435385186#1 435385186#2 435385186#3 435385186#4 435385186#5 1010376048#0 1010376048#1 1010376048#2 1010376048#3 1010376048#4 1010376048#5 1010376048#6 1010376048#7 1010376048#8 -24112695#4 -24112695#3 -24112695#2"/>
    </vehicle>
    <vehicle id="12" depart="12.00">
        <route edges="930289891#15 930289891#16 -930289891#16 -930289891#15"/>
    </vehicle>
    <vehicle id="13" depart="13.00">
        <route edges="-24081636#12 -24081636#11 24081636#11 24081636#12 24081636#13 24081636#14 24081636#15 24081636#16 -24081636#16 -24081636#15"/>
    </vehicle>
    <vehicle id="14" depart="14.00">
        <route edges="56731088#21 56731088#22 1157564204#0 1157564204#1 1157564204#2 1157564204#3 1157564204#4 1157564204#5 1157564204#6 1157564204#7 1157564204#8 1157564204#9 1157564204#10 1157564204#11 1157564204#12 435385207#0 435385207#1 617213539 617214154 617214153 435385232#0 435385232#1 617214149 617214152 617214151 617218067 435385221 617218065#0 617218065#1 435385162 435385186#0 435385186#1 435385186#2 435385186#3 435385186#4 435385186#5 1010376047#0 1010376047#1 1010376047#2 24101222#0 24101222#1 24101222#2 24101222#3"/>
    </vehicle>
    <vehicle id="15" depart="15.00">
        <route edges="435385241#0 435385241#1 -435385241#1 -435385241#0 -435385242#3 -435385242#2 -435385242#1 -435385242#0 -435385238#2 -435385238#1 -435385238#0 1105073451 24081635#0 24081635#1 24081635#2 24081635#3 24081635#4 -38540430#3 -38540430#2 -38540430#1 -38540430#0 38540430#0 38540430#1"/>
    </vehicle>
    <vehicle id="16" depart="16.00">
        <route edges="179077274#0 179077274#1 179077274#2 769806984#1 1105073450#0 1105073450#1 435385238#0 435385238#1 435385238#2 435385242#0 435385242#1 435385242#2 435385242#3 435385241#0 435385241#1 435385159#0 435385159#1 435385182#0 435385182#1 435385172#0 435385172#1 38540430#15 38540430#16 930289890 930289891#0 930289891#1 930289891#2 930289891#3 930289891#4 930289891#5 930289891#6 930289891#7 930289891#8 930289891#9 930289891#10 930289891#11 930289891#12 930289891#13 930289891#14 930289891#15 930289891#16"/>
    </vehicle>
    <vehicle id="17" depart="17.00">
        <route edges="-930289891#15 -930289891#14 -930289891#13 -930289891#12 -930289891#11 -930289891#10 -930289891#9 -930289891#8 -930289891#7 -930289891#6 -930289891#5 -930289891#4 -930289891#3 958210086#5 958210086#6 958210086#7 958210086#8 958210086#9 958210086#10 24088196#0 24088196#1 24088196#2 24088196#3 24088196#4 24088196#5 24088196#6 24088196#7 24088196#8 24088196#9 24088196#10 24088196#11 24088196#12"/>
    </vehicle>
    <vehicle id="18" depart="18.00">
        <route edges="56731088#1 56731088#2 56731088#3 56731088#4 56731088#5 56731088#6 56731088#7 56731088#8 56731088#9 56731088#10 56731088#11 56731088#12 56731088#13 435385158#0 435385158#1 435385158#2 435385158#3 435385158#4 435385158#5 435385158#6 435385158#7 435385158#8 435385158#9 435385158#10 435385158#11 435385165 435385162 435385186#0 435385186#1 435385186#2 435385186#3 435385186#4 435385186#5 1010376047#0 1010376047#1 1010376047#2 24101222#0 24101222#1 24101222#2 24101222#3 24101222#4 24101222#5 24101222#6"/>
    </vehicle>
    <vehicle id="19" depart="19.00">
        <route edges="56731088#3 56731088#4 56731088#5 56731088#6 56731088#7 56731088#8 56731088#9 56731088#10 56731088#11 56731088#12 56731088#13 -435385178#1 -435385178#0 -435385183#1 -435385183#0 -435385160#1 -435385160#0 1133035282#0 1133035282#1 -1133035281#1 -1133035281#0 -435385167#1 -435385167#0 -435385172#1 -435385172#0 -435385182#1 -435385182#0 -435385159#1 -435385159#0 -435385241#1 -435385241#0 -435385242#3 -435385242#2 -435385242#1 -435385242#0 -435385238#2 -435385238#1 -435385238#0 -1105073450#1 -1105073450#0 -769806984#1 -769806984#0 24090834#2"/>
    </vehicle>
    <vehicle id="20" depart="20.00">
        <route edges="255368334#5 255368334#6 -1157564041#7 -1157564041#6 -1157564041#5"/>
    </vehicle>
    <vehicle id="21" depart="21.00">
        <route edges="-38744198#0 -435385240#1 -435385240#0 435385159#0 435385159#1 435385182#0 435385182#1 435385172#0 435385172#1 435385167#0 435385167#1 1133035281#0 1133035281#1 435385184#0 435385184#1 435385184#2 435385160#0 435385160#1 435385183#0 435385183#1 435385178#0 435385178#1 435385158#0 435385158#1 435385158#2 435385158#3 435385158#4 435385158#5 435385158#6 435385158#7 435385158#8 435385158#9 435385158#10 435385158#11 435385165 -617218065#1 -617218065#0 -435385221 -617218067 -617214151 -617214152 -617214149 -435385232#1 -435385232#0 -617214153 -617214154"/>
    </vehicle>
    <vehicle id="22" depart="22.00">
        <route edges="-179077731#2 179077731#2 179077731#3 -31090878#1 -31090878#0 -435385247#1 -435385247#0 435385159#0 435385159#1 435385182#0 435385182#1 435385172#0 435385172#1 435385167#0 435385167#1 1133035281#0 1133035281#1 435385184#0 435385184#1 435385184#2 435385160#0 435385160#1 435385183#0 435385183#1 435385178#0 435385178#1 435385158#0 435385158#1 435385158#2 435385158#3 435385158#4 435385158#5 435385158#6 435385158#7 435385158#8 435385158#9 435385158#10 435385158#11 435385165 435385162 435385186#0 435385186#1 435385186#2 435385186#3 435385186#4 435385186#5 -435385186#5 -435385186#4 -435385186#3 -435385186#2 -435385186#1"/>
    </vehicle>
    <vehicle id="23" depart="23.00">
        <route edges="-24081636#12 -24081636#11 -24081636#10 -24081636#9 -24081636#8 -24081636#7 586931138#3 586931138#4 586931138#5 586931138#6 586931138#7 586931138#8 586931138#9 -586931138#9 -586931138#8"/>
    </vehicle>
    <vehicle id="25" depart="25.00">
        <route edges="-930289891#15 -930289891#14 -930289891#13 -930289891#12 -930289891#11 -930289891#10 -930289891#9 -930289891#8 -930289891#7 -930289891#6 -930289891#5 -930289891#4 -930289891#3 -930289891#2 -930289891#1 -930289891#0 -930289890 -38540430#16 -38540430#15 435385167#0 435385167#1 1133035281#0 1133035281#1 435385184#0 435385184#1 435385184#2 435385160#0 435385160#1 435385183#0 435385183#1 435385178#0 435385178#1 435385158#0 435385158#1 435385158#2 435385158#3 435385158#4 435385158#5 435385158#6 435385158#7 -390143136#7 -390143136#6 -390143136#5 -390143136#4 -390143136#3"/>
    </vehicle>
    <vehicle id="26" depart="26.00">
        <route edges="-390143136#3 -390143136#2 1157564204#8 1157564204#9 1157564204#10 1157564204#11 1157564204#12 435385207#0 435385207#1 617213539 617214154 617214153 435385232#0 435385232#1 617214149 617214152 617214151 617218067 435385221 617218065#0 617218065#1 -435385165 -435385158#11 -435385158#10 -435385158#9 -435385158#8 -435385158#7 -435385158#6 -435385158#5 -435385158#4 -435385158#3 -435385158#2 -435385158#1 -435385158#0 -435385178#1 -435385178#0 -435385183#1 -435385183#0 -435385160#1 -435385160#0 255368334#10 255368334#11 255368334#12 255368334#13 255368334#14 255368334#15 -958210086#8 -958210086#7 -958210086#6 -958210086#5 930289891#3 930289891#4 930289891#5 930289891#6 930289891#7 930289891#8 930289891#9 930289891#10"/>
    </vehicle>
    <vehicle id="27" depart="27.00">
        <route edges="24101222#3 24101222#4 24101222#5 24101222#6"/>
    </vehicle>
    <vehicle id="28" depart="28.00">
        <route edges="-24104424#1 -24104424#0 35333029#8 35333029#9 -24081636#0 -1157564204#12 -1157564204#11 -1157564204#10 -1157564204#9 -1157564204#8 -1157564204#7 -1157564204#6 -1157564204#5 -1157564204#4 -1157564204#3 -1157564204#2 -1157564204#1 -1157564204#0 56731088#23 -24081635#12 -24081635#11 -24081635#10 -24081635#9 -24081635#8 -24081635#7 -24081635#6 -24081635#5 -38540430#3 -38540430#2 -38540430#1 -38540430#0 38540430#0 38540430#1"/>
    </vehicle>
    <vehicle id="29" depart="29.00">
        <route edges="-24101222#6 -24101222#5 194871936#3 194871936#4 194871936#5 194871936#6 1010376048#6 1010376048#7 1010376048#8 1010376048#9 1010376048#10"/>
    </vehicle>
    <vehicle id="30" depart="30.00">
        <route edges="930289891#7 930289891#8 930289891#9 930289891#10 930289891#11 930289891#12 930289891#13 930289891#14 930289891#15 930289891#16 -930289891#16 -930289891#15 -930289891#14 -930289891#13 -930289891#12 -930289891#11 -930289891#10 -930289891#9 -930289891#8 -930289891#7 -930289891#6 -930289891#5 -930289891#4 -930289891#3 -930289891#2 -930289891#1 -930289891#0 -930289890 -38540430#16 -38540430#15 435385167#0 435385167#1 1133035281#0 1133035281#1 435385184#0 435385184#1 435385184#2 435385160#0 435385160#1 435385183#0 435385183#1 435385178#0 435385178#1 435385158#0 435385158#1 435385158#2 435385158#3 435385158#4 435385158#5 435385158#6 435385158#7 435385158#8 435385158#9 435385158#10 435385158#11 435385165 -617218065#1 -617218065#0 -435385221 -617218067 -617214151 -617214152 -617214149 24116341#0 24116341#1 24116341#2 24116341#3 24116341#4 24116341#5 24116341#6 24116341#7 24116341#8 24116341#9 24116341#10 24116341#11 24116341#12"/>
    </vehicle>
    <vehicle id="31" depart="31.00">
        <route edges="194871936#0 194871936#1 194871936#2 -24101222#4 -24101222#3 -24101222#2 -24101222#1 -24101222#0 -1010376047#2 -1010376047#1 -1010376047#0 -435385186#5 -435385186#4 -435385186#3 -435385186#2 -435385186#1 -435385186#0 -435385162 -435385165 -435385158#11 -435385158#10 -435385158#9 -435385158#8 -435385158#7 -435385158#6 -435385158#5 -435385158#4 -435385158#3 -435385158#2 -435385158#1 -435385158#0 -435385178#1 -435385178#0 -435385183#1 -435385183#0 -435385160#1 -435385160#0 255368334#10 255368334#11 255368334#12 255368334#13 255368334#14 255368334#15 255368334#16 255368334#17 255368334#18 255368334#19 255368334#20"/>
    </vehicle>
    <vehicle id="32" depart="32.00">
        <route edges="56731088#18 56731088#19 1157564041#12 1157564041#13 1157564041#14 1157564041#15 1110097394#6 1110097394#7 1110097394#8 1110097394#9 1110097394#10 1110097394#11 435385158#4 435385158#5 435385158#6 435385158#7 390143136#8 390143136#9 390143136#10 390143136#11 390143136#12 390143136#13"/>
    </vehicle>
    <vehicle id="33" depart="33.00">
        <route edges="-38744198#1 -38744198#0 -435385240#1 -435385240#0 435385159#0 435385159#1 435385182#0 435385182#1 435385172#0 435385172#1 435385167#0 435385167#1 1133035281#0 1133035281#1 435385184#0 435385184#1 435385184#2 435385160#0 435385160#1 435385183#0 435385183#1 435385178#0 435385178#1 435385158#0 435385158#1 435385158#2 435385158#3 1110097395#0 1110097395#1 1110097395#2 -1110097395#2 -1110097395#1"/>
    </vehicle>
    <vehicle id="34" depart="34.00">
        <route edges="-586931138#5 -586931138#4 -586931138#3 -586931138#2 -586931138#1 -586931138#0"/>
    </vehicle>
    <vehicle id="35" depart="35.00">
        <route edges="-38540430#1 -38540430#0 38540430#0 38540430#1 38540430#2 38540430#3 38540430#4 38540430#5 38540430#6 38540430#7 38540430#8 38540430#9 38540430#10 38540430#11 38540430#12 38540430#13 38540430#14 38540430#15 38540430#16 930289890 930289891#0 930289891#1 930289891#2 930289891#3 930289891#4 930289891#5 930289891#6 930289891#7 930289891#8 930289891#9 930289891#10 930289891#11"/>
    </vehicle>
    <vehicle id="36" depart="36.00">
        <route edges="56731088#6 56731088#7 56731088#8 56731088#9 56731088#10 -24088196#1 -24088196#0 -958210086#10 -958210086#9 -958210086#8 -958210086#7 -958210086#6 -958210086#5 930289891#3 930289891#4 930289891#5 930289891#6 930289891#7 930289891#8 930289891#9 930289891#10 930289891#11 930289891#12 930289891#13 930289891#14 930289891#15 930289891#16 -930289891#16 -930289891#15 -930289891#14 -930289891#13 -930289891#12 -930289891#11 -930289891#10"/>
    </vehicle>
    <vehicle id="38" depart="38.00">
        <route edges="617214154 617214153 435385232#0 435385232#1 617214149 617214152 617214151 617218067 435385221 617218065#0 617218065#1 -435385165 -435385158#11 -435385158#10 -435385158#9 -435385158#8 -435385158#7 -435385158#6 -435385158#5 -435385158#4 1110097395#0 1110097395#1"/>
    </vehicle>
    <vehicle id="39" depart="39.00">
        <route edges="-390143136#13 -390143136#12 -390143136#11 -390143136#10 -390143136#9 -390143136#8 -435385158#7 -435385158#6 -435385158#5 -435385158#4 -435385158#3 -435385158#2 -435385158#1 -435385158#0 -435385178#1 -435385178#0 -435385183#1 -435385183#0 -435385160#1 -435385160#0 1133035282#0 1133035282#1 -1133035281#1 -1133035281#0 -435385167#1 -435385167#0 -435385172#1 -435385172#0 -435385182#1 -435385182#0 -435385159#1 -435385159#0 -435385241#1 -435385241#0 -435385242#3 -435385242#2 -435385242#1 -435385242#0"/>
    </vehicle>
    <vehicle id="40" depart="40.00">
        <route edges="194871936#4 194871936#5 194871936#6 -1010376048#5 -1010376048#4 -1010376048#3 -1010376048#2 -1010376048#1 -1010376048#0 -586931138#13 -586931138#12 -586931138#11 -586931138#10 -586931138#9 -586931138#8 -586931138#7 -586931138#6 -586931138#5 -586931138#4 -586931138#3 -586931138#2 -586931138#1 -586931138#0"/>
    </vehicle>
    <vehicle id="41" depart="41.00">
        <route edges="24081636#12 24081636#13 24081636#14 24081636#15 24081636#16 -24081636#16 -24081636#15 -24081636#14 -24081636#13 -24081636#12 -24081636#11 -24081636#10 -24081636#9 -24081636#8 -24081636#7 586931138#3 586931138#4 586931138#5"/>
    </vehicle>
    <vehicle id="42" depart="42.00">
        <route edges="-930289891#7 -930289891#6 -930289891#5 -930289891#4 -930289891#3 958210086#5 958210086#6 958210086#7 958210086#8 958210086#9 958210086#10 24088196#0 24088196#1 24088196#2 24088196#3 24088196#4 24088196#5 24088196#6 24088196#7 24088196#8 24088196#9 -390143136#11 -390143136#10 -390143136#9"/>
    </vehicle>
    <vehicle id="43" depart="43.00">
        <route edges="958210086#6 958210086#7 958210086#8 -958210086#8 -958210086#7 -958210086#6 -958210086#5 -958210086#4 -958210086#3 -958210086#2 -958210086#1 -958210086#0 -38744198#3 -38744198#2 -38744198#1 -38744198#0 -435385240#1 -435385240#0 435385247#0 435385247#1 31090878#0 31090878#1 179077731#4 179077731#5"/>
    </vehicle>
    <vehicle id="44" depart="44.00">
        <route edges="-24081636#10 -24081636#9 -24081636#8 -24081636#7 -24081636#6 -24081636#5 -24081636#4 -24081636#3 -24081636#2 -24081636#1 -24081636#0 -1157564204#12 -1157564204#11 -1157564204#10 -1157564204#9 -1157564204#8 -1157564204#7 -1157564204#6 -1157564204#5 -1157564204#4 -1157564204#3 -1157564204#2 -1157564204#1 -1157564204#0 56731088#23 -24081635#12 -24081635#11 -24081635#10 -24081635#9 255368334#3 255368334#4 255368334#5 255368334#6 -1157564041#7 -1157564041#6"/>
    </vehicle>
    <vehicle id="45" depart="45.00">
        <route edges="-24081636#2 -24081636#1 -24081636#0 435385207#0 435385207#1 617213539 617214154 617214153 435385232#0 435385232#1 24116341#0 35333029#6 35333029#7 24104424#0 24104424#1"/>
    </vehicle>
    <vehicle id="46" depart="46.00">
        <route edges="435385160#1 435385183#0 435385183#1 435385178#0 435385178#1 435385158#0 435385158#1 435385158#2 435385158#3 435385158#4 435385158#5 435385158#6 435385158#7 435385158#8 435385158#9 435385158#10 435385158#11 435385165 435385211#0 435385211#1 617218062 617219108 617219102 435385230 -24088196#14 1077018932#3 1077018932#4 1077018932#5 1077018932#6 1077018932#7"/>
    </vehicle>
    <vehicle id="47" depart="47.00">
        <route edges="-1157564041#21 -1157564041#20 1157564041#20 1157564041#21 1157564041#22 1157564041#23 1157564041#24 617214149 617214152 617214151 617218067 435385221 617218065#0 617218065#1 435385162 435385186#0 435385186#1 435385186#2 435385186#3 435385186#4 435385186#5 1010376048#0 1010376048#1 1010376048#2 1010376048#3 1010376048#4 1010376048#5 1010376048#6 1010376048#7 1010376048#8 1010376048#9 1010376048#10"/>
    </vehicle>
    <vehicle id="48" depart="48.00">
        <route edges="958210086#2 958210086#3 958210086#4 -930289891#2 -930289891#1 -930289891#0 -930289890 -38540430#16 -38540430#15 435385167#0 435385167#1 1133035281#0 1133035281#1 435385184#0 435385184#1 435385184#2 435385160#0 435385160#1 435385183#0 435385183#1 435385178#0 435385178#1 435385158#0 435385158#1 435385158#2 435385158#3 435385158#4 435385158#5 435385158#6 435385158#7 435385158#8 435385158#9 435385158#10 435385158#11 435385165 -617218065#1 -617218065#0 -435385221 -617218067 -617214151 -617214152 -617214149 -435385232#1 -435385232#0 -617214153 -617214154 -617213539 -435385207#1 -435385207#0 24081636#0 24081636#1 24081636#2 24081636#3 24081636#4 24081636#5 24081636#6 24081636#7 24081636#8 24081636#9 24081636#10 24081636#11 24081636#12"/>
    </vehicle>
    <vehicle id="49" depart="49.00">
        <route edges="930289891#15 930289891#16 -930289891#16 -930289891#15 -930289891#14 -930289891#13 -930289891#12 -930289891#11 -930289891#10 -930289891#9 -930289891#8 -930289891#7 -930289891#6 -930289891#5 -930289891#4 -930289891#3 -930289891#2 -930289891#1 -930289891#0 -930289890 -38540430#16 -38540430#15 435385167#0 435385167#1 1133035281#0 1133035281#1 435385184#0 435385184#1 435385184#2 435385160#0 435385160#1 435385183#0 435385183#1 435385178#0 435385178#1 56731088#14 56731088#15 56731088#16 56731088#17 56731088#18 56731088#19 56731088#20 56731088#21 56731088#22 56731088#23 56731088#24 56731088#25"/>
    </vehicle>
    <vehicle id="50" depart="50.00">
        <route edges="-1010376048#10 -1010376048#9 -1010376048#8 -1010376048#7 -1010376048#6 -1010376048#5 -1010376048#4 -1010376048#3 -1010376048#2 -1010376048#1 -1010376048#0 -435385186#5 -435385186#4 -435385186#3 -435385186#2 -435385186#1 -435385186#0 -435385162 -617218065#1 -617218065#0 -435385221 -617218067 -617214151 -617214152 -617214149 24116341#0 35333029#6 35333029#7"/>
    </vehicle>
    <vehicle id="51" depart="51.00">
        <route edges="255368334#1 255368334#2 255368334#3 255368334#4 255368334#5 255368334#6 255368334#7 255368334#8 255368334#9 435385160#0 435385160#1 435385183#0 435385183#1 435385178#0 435385178#1 435385158#0 435385158#1 435385158#2 435385158#3 435385158#4 435385158#5 435385158#6 435385158#7 435385158#8 435385158#9 435385158#10 435385158#11 435385165 -617218065#1 -617218065#0 -435385221 -617218067 -617214151 -617214152 -617214149 -435385232#1 -435385232#0 -617214153 -617214154 -617213539 -435385207#1 -435385207#0 24081636#0 24081636#1 24081636#2 24081636#3 24081636#4 24081636#5 24081636#6 24081636#7 24081636#8 24081636#9 24081636#10 24081636#11 24081636#12"/>
    </vehicle>
    <vehicle id="52" depart="52.00">
        <route edges="-390143136#3 -390143136#2 1157564204#8 1157564204#9 1157564204#10 1157564204#11 1157564204#12 435385207#0 435385207#1 617213539 617214154 617214153 435385232#0 435385232#1 24116341#0 24116341#1 24116341#2 24116341#3 24116341#4 24116341#5 24116341#6 24116341#7 24116341#8 24116341#9 24116341#10 24116341#11 24116341#12"/>
    </vehicle>
    <vehicle id="55" depart="55.00">
        <route edges="56731088#6 56731088#7 56731088#8 56731088#9 56731088#10 56731088#11 56731088#12 56731088#13 435385158#0 435385158#1 435385158#2 435385158#3 435385158#4 435385158#5 435385158#6 435385158#7 435385158#8 435385158#9 435385158#10 435385158#11 435385165 -617218065#1 -617218065#0 -435385221 -617218067 -617214151 -617214152 -617214149 -435385232#1 -435385232#0 -617214153 -617214154 -617213539 -435385207#1 -435385207#0 24081636#0 24081636#1 24081636#2 24081636#3 24081636#4 24081636#5 24081636#6 -586931138#2 -586931138#1 -586931138#0"/>
    </vehicle>
    <vehicle id="56" depart="56.00">
        <route edges="1110097394#9 1110097394#10 1110097394#11 -435385158#3 -435385158#2 -435385158#1 -435385158#0 -435385178#1 -435385178#0 -435385183#1 -435385183#0 -435385160#1 -435385160#0 1133035282#0 1133035282#1 -1133035281#1 -1133035281#0 -435385167#1 -435385167#0 -38540430#14 -38540430#13"/>
    </vehicle>
    <vehicle id="58" depart="58.00">
        <route edges="-435385240#1 -435385240#0 435385159#0 435385159#1 435385182#0 435385182#1 435385172#0 435385172#1 435385167#0 435385167#1 1133035281#0 1133035281#1 435385184#0 435385184#1 435385184#2 435385160#0 435385160#1 435385183#0 435385183#1 435385178#0 435385178#1 435385158#0 435385158#1 435385158#2 435385158#3 435385158#4 435385158#5 435385158#6 435385158#7 435385158#8 435385158#9 435385158#10 435385158#11 435385165 -617218065#1 -617218065#0 -435385221 -617218067 -617214151 -617214152 -617214149 24116341#0 24116341#1 24116341#2 24116341#3 24116341#4 24116341#5 24116341#6 24116341#7 24116341#8 24116341#9 24116341#10 24116341#11 24116341#12"/>
    </vehicle>
    <vehicle id="59" depart="59.00">
        <route edges="24089995#3 24089995#4 24089995#5 -586931138#9 -586931138#8 -586931138#7 -586931138#6 -586931138#5 -24104424#4 -24104424#3"/>
    </vehicle>
    <vehicle id="60" depart="60.00">
        <route edges="38744198#5 38744198#6 38744198#7 -38744198#7 -38744198#6 -38744198#5 -38744198#4 -38744198#3 -38744198#2 -38744198#1 -38744198#0 -435385240#1 -435385240#0 435385159#0 435385159#1 435385182#0 435385182#1 435385172#0 435385172#1 435385167#0 435385167#1 1133035281#0 1133035281#1 435385184#0 435385184#1 435385184#2 435385160#0 435385160#1 435385183#0 435385183#1 435385178#0 435385178#1 435385158#0 435385158#1 435385158#2 435385158#3 435385158#4 435385158#5 435385158#6 435385158#7 435385158#8 435385158#9 435385158#10 435385158#11 435385165 -617218065#1 -617218065#0 -435385221 -617218067 -617214151 -617214152 -617214149 -435385232#1 -435385232#0 -617214153 -617214154 -617213539 -435385207#1 -435385207#0 24081636#0 24081636#1 24081636#2 24081636#3 24081636#4 24081636#5 24081636#6 24081636#7 24081636#8 24081636#9 24081636#10 24081636#11 24081636#12 24081636#13 24081636#14"/>
    </vehicle>
    <vehicle id="61" depart="61.00">
        <route edges="390143136#6 390143136#7 435385158#8 435385158#9 435385158#10 435385158#11 435385165 -617218065#1 -617218065#0 -435385221 -617218067 -617214151 -617214152 -617214149 -435385232#1 -435385232#0 -617214153 -617214154 -617213539 -435385207#1 -435385207#0 24081636#0 24081636#1 24081636#2 24081636#3 24081636#4 24081636#5 24081636#6 24081636#7 24081636#8 24081636#9 24081636#10 24081636#11 24081636#12"/>
    </vehicle>
    <vehicle id="62" depart="62.00">
        <route edges="-1010376047#1 -1010376047#0 -435385186#5 -435385186#4 -435385186#3 -435385186#2 -435385186#1 -435385186#0 -435385162 -435385165 -435385158#11 -435385158#10 -435385158#9 -435385158#8 -435385158#7 -435385158#6 -435385158#5 -435385158#4 -435385158#3 -435385158#2 -435385158#1 -435385158#0 -435385178#1 -435385178#0 -435385183#1 -435385183#0 -435385160#1 -435385160#0 255368334#10 255368334#11 255368334#12 255368334#13 255368334#14 255368334#15 -958210086#8 -958210086#7 -958210086#6 -958210086#5 930289891#3 930289891#4 930289891#5 930289891#6 930289891#7 930289891#8 930289891#9 930289891#10 930289891#11 930289891#12 930289891#13 930289891#14 930289891#15 930289891#16 -930289891#16 -930289891#15 -930289891#14 -930289891#13 -930289891#12 -930289891#11"/>
    </vehicle>
    <vehicle id="63" depart="63.00">
        <route edges="-1010376048#7 -1010376048#6 -1010376048#5 -1010376048#4 -1010376048#3 -1010376048#2 -1010376048#1 -1010376048#0 -435385186#5 -435385186#4 -435385186#3 -435385186#2 -435385186#1 -435385186#0 -435385162 -435385165 -435385158#11 -435385158#10 -435385158#9 -435385158#8 -435385158#7 -435385158#6 -435385158#5 -435385158#4 -435385158#3 -435385158#2 -435385158#1 -435385158#0 -435385178#1 -435385178#0 -435385183#1 -435385183#0 -435385160#1 -435385160#0 255368334#10 255368334#11 255368334#12 255368334#13 255368334#14 255368334#15 -958210086#8 -958210086#7 -958210086#6 -958210086#5 930289891#3 930289891#4 930289891#5 930289891#6 930289891#7 930289891#8 930289891#9 930289891#10"/>
    </vehicle>
    <vehicle id="65" depart="65.00">
        <route edges="-435385242#3 -435385242#2 -435385242#1 -435385242#0 -435385238#2 -435385238#1 -435385238#0 -1105073450#1 -1105073450#0 -769806984#1 -179077274#2 -179077274#1 -179077274#0"/>
    </vehicle>
    <vehicle id="66" depart="66.00">
        <route edges="56731088#6 56731088#7 56731088#8 56731088#9 56731088#10 -24088196#1 -24088196#0 -958210086#10 -958210086#9 -958210086#8 -958210086#7 -958210086#6 -958210086#5 930289891#3 930289891#4 930289891#5 930289891#6 930289891#7 930289891#8 930289891#9 930289891#10 930289891#11"/>
    </vehicle>
    <vehicle id="67" depart="67.00">