<?xml version="1.0" encoding="UTF-8"?>

<!-- generated on 2023-10-04 11:01:41 by Eclipse SUMO netconvert Version 1.18.0
<configuration xmlns:xsi="http://www.w3.org/2001/XMLSchema-instance" xsi:noNamespaceSchemaLocation="http://sumo.dlr.de/xsd/netconvertConfiguration.xsd">

    <input>
        <osm-files value="zhijiage.osm"/>
    </input>

    <output>
        <output-file value="zhijiege.net.xml"/>
    </output>

    <projection>
        <proj.utm value="true"/>
    </projection>

</configuration>
-->

<net version="1.16" junctionCornerDetail="5" limitTurnSpeed="5.50" xmlns:xsi="http://www.w3.org/2001/XMLSchema-instance" xsi:noNamespaceSchemaLocation="http://sumo.dlr.de/xsd/net_file.xsd">

    <location netOffset="-447773.90,-4626156.20" convBoundary="0.00,0.00,2022.86,4604.00" origBoundary="-87.628739,41.785564,-87.604407,41.827022" projParameter="+proj=utm +zone=16 +ellps=WGS84 +datum=WGS84 +units=m +no_defs"/>

    <type id="highway.footway" priority="1" numLanes="1" speed="2.78" allow="pedestrian" oneway="1" width="2.00"/>
    <type id="highway.path" priority="1" numLanes="1" speed="5.56" allow="pedestrian bicycle" oneway="0" width="2.00"/>
    <type id="highway.residential" priority="3" numLanes="1" speed="13.89" disallow="tram rail_urban rail rail_electric rail_fast ship" oneway="0"/>
    <type id="highway.secondary" priority="11" numLanes="1" speed="27.78" disallow="tram rail_urban rail rail_electric rail_fast ship" oneway="0"/>
    <type id="highway.service" priority="1" numLanes="1" speed="5.56" allow="pedestrian delivery bicycle" oneway="0"/>
    <type id="highway.steps" priority="1" numLanes="1" speed="1.39" allow="pedestrian" oneway="1" width="2.00"/>
    <type id="railway.subway" priority="18" numLanes="1" speed="27.78" allow="rail_urban" oneway="1"/>

    <edge id=":10009967221_0" function="internal">
        <lane id=":10009967221_0_0" index="0" disallow="tram rail_urban rail rail_electric rail_fast ship" speed="13.89" length="4.23" shape="983.73,2440.09 979.51,2440.04"/>
    </edge>
    <edge id=":10009967221_1" function="internal">
        <lane id=":10009967221_1_0" index="0" disallow="tram rail_urban rail rail_electric rail_fast ship" speed="13.89" length="4.19" shape="979.56,2436.84 983.74,2436.89"/>
    </edge>
    <edge id=":10009967223_0" function="internal">
        <lane id=":10009967223_0_0" index="0" disallow="tram rail_urban rail rail_electric rail_fast ship" speed="13.89" length="4.44" shape="1032.05,2629.20 1031.97,2633.65"/>
    </edge>
    <edge id=":10009967224_0" function="internal">
        <lane id=":10009967224_0_0" index="0" disallow="tram rail_urban rail rail_electric rail_fast ship" speed="27.78" length="4.40" shape="1017.29,2629.21 1017.23,2633.61"/>
        <lane id=":10009967224_0_1" index="1" disallow="tram rail_urban rail rail_electric rail_fast ship" speed="27.78" length="4.40" shape="1014.09,2629.17 1014.03,2633.56"/>
        <lane id=":10009967224_0_2" index="2" disallow="tram rail_urban rail rail_electric rail_fast ship" speed="27.78" length="4.40" shape="1010.89,2629.12 1010.83,2633.52"/>
    </edge>
    <edge id=":10009967224_3" function="internal">
        <lane id=":10009967224_3_0" index="0" disallow="tram rail_urban rail rail_electric rail_fast ship" speed="27.78" length="4.40" shape="1004.43,2633.43 1004.49,2629.03"/>
        <lane id=":10009967224_3_1" index="1" disallow="tram rail_urban rail rail_electric rail_fast ship" speed="27.78" length="4.40" shape="1007.63,2633.48 1007.69,2629.08"/>
    </edge>
    <edge id=":10009967225_0" function="internal">
        <lane id=":10009967225_0_0" index="0" disallow="tram rail_urban rail rail_electric rail_fast ship" speed="13.89" length="4.18" shape="987.51,2633.29 987.54,2629.11"/>
    </edge>
    <edge id=":10009967229_0" function="internal">
        <lane id=":10009967229_0_0" index="0" disallow="tram rail_urban rail rail_electric rail_fast ship" speed="13.89" length="3.48" shape="1043.03,2339.63 1039.55,2339.57"/>
    </edge>
    <edge id=":10009967229_1" function="internal">
        <lane id=":10009967229_1_0" index="0" disallow="tram rail_urban rail rail_electric rail_fast ship" speed="13.89" length="3.48" shape="1039.60,2336.37 1043.07,2336.43"/>
    </edge>
    <edge id=":10009967230_0" function="internal">
        <lane id=":10009967230_0_0" index="0" disallow="tram rail_urban rail rail_electric rail_fast ship" speed="13.89" length="4.07" shape="1042.51,2439.23 1038.45,2439.18"/>
    </edge>
    <edge id=":10009967231_0" function="internal">
        <lane id=":10009967231_0_0" index="0" allow="pedestrian delivery bicycle" speed="5.56" length="5.03" shape="1041.45,2580.92 1036.43,2580.85"/>
    </edge>
    <edge id=":10009967231_1" function="internal">
        <lane id=":10009967231_1_0" index="0" allow="pedestrian delivery bicycle" speed="3.65" length="1.44" shape="1041.45,2580.92 1040.27,2580.10"/>
    </edge>
    <edge id=":10009967231_4" function="internal">
        <lane id=":10009967231_4_0" index="0" allow="pedestrian delivery bicycle" speed="3.65" length="3.23" shape="1040.27,2580.10 1039.88,2579.30 1040.29,2578.50 1041.50,2577.72"/>
    </edge>
    <edge id=":10009967231_2" function="internal">
        <lane id=":10009967231_2_0" index="0" allow="pedestrian delivery bicycle" speed="5.56" length="5.04" shape="1036.46,2577.65 1041.50,2577.72"/>
    </edge>
    <edge id=":10009967231_3" function="internal">
        <lane id=":10009967231_3_0" index="0" allow="pedestrian delivery bicycle" speed="3.65" length="1.44" shape="1036.46,2577.65 1037.65,2578.47"/>
    </edge>
    <edge id=":10009967231_5" function="internal">
        <lane id=":10009967231_5_0" index="0" allow="pedestrian delivery bicycle" speed="3.65" length="3.23" shape="1037.65,2578.47 1038.04,2579.27 1037.63,2580.07 1036.43,2580.85"/>
    </edge>
    <edge id=":10009967232_0" function="internal">
        <lane id=":10009967232_0_0" index="0" allow="pedestrian delivery bicycle" speed="5.56" length="5.49" shape="1041.80,2588.56 1036.32,2588.86"/>
    </edge>
    <edge id=":10009967232_1" function="internal">
        <lane id=":10009967232_1_0" index="0" allow="pedestrian delivery bicycle" speed="3.65" length="1.44" shape="1041.80,2588.56 1040.54,2587.85"/>
    </edge>
    <edge id=":10009967232_4" function="internal">
        <lane id=":10009967232_4_0" index="0" allow="pedestrian delivery bicycle" speed="3.65" length="3.23" shape="1040.54,2587.85 1040.08,2587.09 1040.41,2586.26 1041.54,2585.36"/>
    </edge>
    <edge id=":10009967232_2" function="internal">
        <lane id=":10009967232_2_0" index="0" allow="pedestrian delivery bicycle" speed="5.56" length="5.34" shape="1036.21,2585.66 1041.54,2585.36"/>
    </edge>
    <edge id=":10009967232_3" function="internal">
        <lane id=":10009967232_3_0" index="0" allow="pedestrian delivery bicycle" speed="3.65" length="1.44" shape="1036.21,2585.66 1037.43,2586.42"/>
    </edge>
    <edge id=":10009967232_5" function="internal">
        <lane id=":10009967232_5_0" index="0" allow="pedestrian delivery bicycle" speed="3.65" length="3.23" shape="1037.43,2586.42 1037.86,2587.20 1037.49,2588.01 1036.32,2588.86"/>
    </edge>
    <edge id=":10009967253_0" function="internal">
        <lane id=":10009967253_0_0" index="0" disallow="tram rail_urban rail rail_electric rail_fast ship" speed="13.89" length="4.48" shape="988.59,2449.82 988.62,2445.34"/>
    </edge>
    <edge id=":10009967256_0" function="internal">
        <lane id=":10009967256_0_0" index="0" disallow="tram rail_urban rail rail_electric rail_fast ship" speed="13.89" length="4.24" shape="1033.54,2445.65 1033.52,2449.88"/>
    </edge>
    <edge id=":10009967259_0" function="internal">
        <lane id=":10009967259_0_0" index="0" disallow="tram rail_urban rail rail_electric rail_fast ship" speed="13.89" length="4.63" shape="988.76,2431.57 988.82,2426.93"/>
    </edge>
    <edge id=":10009967260_0" function="internal">
        <lane id=":10009967260_0_0" index="0" disallow="tram rail_urban rail rail_electric rail_fast ship" speed="27.78" length="4.35" shape="1016.15,2427.58 1016.16,2431.96"/>
        <lane id=":10009967260_0_1" index="1" disallow="tram rail_urban rail rail_electric rail_fast ship" speed="27.78" length="4.35" shape="1012.95,2427.62 1012.96,2431.94"/>
    </edge>
    <edge id=":10009967260_2" function="internal">
        <lane id=":10009967260_2_0" index="0" disallow="tram rail_urban rail rail_electric rail_fast ship" speed="27.78" length="4.22" shape="1006.56,2431.90 1006.55,2427.70"/>
        <lane id=":10009967260_2_1" index="1" disallow="tram rail_urban rail rail_electric rail_fast ship" speed="27.78" length="4.22" shape="1009.76,2431.92 1009.75,2427.66"/>
    </edge>
    <edge id=":10009967263_0" function="internal">
        <lane id=":10009967263_0_0" index="0" disallow="tram rail_urban rail rail_electric rail_fast ship" speed="13.89" length="4.55" shape="1033.78,2427.65 1033.70,2432.20"/>
    </edge>
    <edge id=":10009967266_0" function="internal">
        <lane id=":10009967266_0_0" index="0" disallow="tram rail_urban rail rail_electric rail_fast ship" speed="13.89" length="0.10" shape="991.55,2245.74 991.55,2245.74"/>
    </edge>
    <edge id=":10009967267_0" function="internal">
        <lane id=":10009967267_0_0" index="0" disallow="tram rail_urban rail rail_electric rail_fast ship" speed="27.78" length="0.10" shape="1018.25,2245.86 1018.25,2245.86"/>
        <lane id=":10009967267_0_1" index="1" disallow="tram rail_urban rail rail_electric rail_fast ship" speed="27.78" length="0.10" shape="1015.05,2245.83 1015.05,2245.83"/>
    </edge>
    <edge id=":10009967267_2" function="internal">
        <lane id=":10009967267_2_0" index="0" disallow="tram rail_urban rail rail_electric rail_fast ship" speed="27.78" length="0.10" shape="1005.45,2245.74 1005.45,2245.73"/>
        <lane id=":10009967267_2_1" index="1" disallow="tram rail_urban rail rail_electric rail_fast ship" speed="27.78" length="0.10" shape="1008.65,2245.77 1008.65,2245.77"/>
        <lane id=":10009967267_2_2" index="2" disallow="tram rail_urban rail rail_electric rail_fast ship" speed="27.78" length="0.10" shape="1011.85,2245.80 1011.85,2245.80"/>
    </edge>
    <edge id=":10009967270_0" function="internal">
        <lane id=":10009967270_0_0" index="0" disallow="tram rail_urban rail rail_electric rail_fast ship" speed="13.89" length="0.10" shape="1035.54,2245.90 1035.54,2245.90"/>
    </edge>
    <edge id=":10009967274_0" function="internal">
        <lane id=":10009967274_0_0" index="0" disallow="tram rail_urban rail rail_electric rail_fast ship" speed="13.89" length="0.10" shape="991.81,2227.56 991.81,2227.56"/>
    </edge>
    <edge id=":10009967278_0" function="internal">
        <lane id=":10009967278_0_0" index="0" disallow="tram rail_urban rail rail_electric rail_fast ship" speed="13.89" length="0.30" shape="1035.70,2227.95 1035.70,2228.25"/>
    </edge>
    <edge id=":10009967300_0" function="internal">
        <lane id=":10009967300_0_0" index="0" disallow="tram rail_urban rail rail_electric rail_fast ship" speed="27.78" length="4.14" shape="1040.93,2642.12 1036.79,2642.07"/>
    </edge>
    <edge id=":10009967300_1" function="internal">
        <lane id=":10009967300_1_0" index="0" disallow="tram rail_urban rail rail_electric rail_fast ship" speed="27.78" length="4.15" shape="1036.82,2638.87 1040.97,2638.92"/>
    </edge>
    <edge id=":10009967301_0" function="internal">
        <lane id=":10009967301_0_0" index="0" disallow="tram rail_urban rail rail_electric rail_fast ship" speed="13.89" length="4.15" shape="1039.54,2742.11 1035.39,2742.04"/>
    </edge>
    <edge id=":10009967301_1" function="internal">
        <lane id=":10009967301_1_0" index="0" disallow="tram rail_urban rail rail_electric rail_fast ship" speed="13.89" length="4.15" shape="1035.45,2738.84 1039.59,2738.91"/>
    </edge>
    <edge id=":10009967302_0" function="internal">
        <lane id=":10009967302_0_0" index="0" allow="pedestrian delivery bicycle" speed="5.56" length="5.19" shape="1038.78,2796.78 1033.59,2796.55"/>
    </edge>
    <edge id=":10009967302_1" function="internal">
        <lane id=":10009967302_1_0" index="0" allow="pedestrian delivery bicycle" speed="3.65" length="1.44" shape="1038.78,2796.78 1037.62,2795.93"/>
    </edge>
    <edge id=":10009967302_4" function="internal">
        <lane id=":10009967302_4_0" index="0" allow="pedestrian delivery bicycle" speed="3.65" length="3.23" shape="1037.62,2795.93 1037.25,2795.11 1037.69,2794.33 1038.92,2793.58"/>
    </edge>
    <edge id=":10009967302_2" function="internal">
        <lane id=":10009967302_2_0" index="0" allow="pedestrian delivery bicycle" speed="5.56" length="5.19" shape="1033.74,2793.36 1038.92,2793.58"/>
    </edge>
    <edge id=":10009967302_3" function="internal">
        <lane id=":10009967302_3_0" index="0" allow="pedestrian delivery bicycle" speed="3.65" length="1.44" shape="1033.74,2793.36 1034.90,2794.21"/>
    </edge>
    <edge id=":10009967302_5" function="internal">
        <lane id=":10009967302_5_0" index="0" allow="pedestrian delivery bicycle" speed="3.65" length="3.23" shape="1034.90,2794.21 1035.26,2795.03 1034.83,2795.81 1033.59,2796.55"/>
    </edge>
    <edge id=":10009967303_0" function="internal">
        <lane id=":10009967303_0_0" index="0" allow="pedestrian delivery bicycle" speed="5.56" length="5.04" shape="1038.44,2819.33 1033.40,2819.23"/>
    </edge>
    <edge id=":10009967303_1" function="internal">
        <lane id=":10009967303_1_0" index="0" allow="pedestrian delivery bicycle" speed="3.65" length="1.44" shape="1038.44,2819.33 1037.25,2818.50"/>
    </edge>
    <edge id=":10009967303_4" function="internal">
        <lane id=":10009967303_4_0" index="0" allow="pedestrian delivery bicycle" speed="3.65" length="3.23" shape="1037.25,2818.50 1036.87,2817.70 1037.28,2816.90 1038.50,2816.13"/>
    </edge>
    <edge id=":10009967303_2" function="internal">
        <lane id=":10009967303_2_0" index="0" allow="pedestrian delivery bicycle" speed="5.56" length="5.04" shape="1033.45,2816.03 1038.50,2816.13"/>
    </edge>
    <edge id=":10009967303_3" function="internal">
        <lane id=":10009967303_3_0" index="0" allow="pedestrian delivery bicycle" speed="3.65" length="1.44" shape="1033.45,2816.03 1034.64,2816.85"/>
    </edge>
    <edge id=":10009967303_5" function="internal">
        <lane id=":10009967303_5_0" index="0" allow="pedestrian delivery bicycle" speed="3.65" length="3.23" shape="1034.64,2816.85 1035.03,2817.66 1034.61,2818.45 1033.40,2819.23"/>
    </edge>
    <edge id=":10009967304_0" function="internal">
        <lane id=":10009967304_0_0" index="0" disallow="tram rail_urban rail rail_electric rail_fast ship" speed="13.89" length="4.13" shape="1038.09,2843.92 1033.97,2843.86"/>
    </edge>
    <edge id=":10009967304_1" function="internal">
        <lane id=":10009967304_1_0" index="0" disallow="tram rail_urban rail rail_electric rail_fast ship" speed="13.89" length="4.13" shape="1034.01,2840.66 1038.14,2840.72"/>
    </edge>
    <edge id=":10009967305_0" function="internal">
        <lane id=":10009967305_0_0" index="0" disallow="tram rail_urban rail rail_electric rail_fast ship" speed="13.89" length="4.10" shape="1036.65,2944.89 1032.55,2944.82"/>
    </edge>
    <edge id=":10009967305_1" function="internal">
        <lane id=":10009967305_1_0" index="0" disallow="tram rail_urban rail rail_electric rail_fast ship" speed="13.89" length="4.10" shape="1032.61,2941.62 1036.71,2941.69"/>
    </edge>
    <edge id=":10009967306_0" function="internal">
        <lane id=":10009967306_0_0" index="0" disallow="tram rail_urban rail rail_electric rail_fast ship" speed="13.89" length="4.08" shape="1035.23,3045.92 1031.15,3045.86"/>
    </edge>
    <edge id=":10009967306_1" function="internal">
        <lane id=":10009967306_1_0" index="0" disallow="tram rail_urban rail rail_electric rail_fast ship" speed="13.89" length="4.08" shape="1031.19,3042.66 1035.27,3042.72"/>
    </edge>
    <edge id=":10009967307_0" function="internal">
        <lane id=":10009967307_0_0" index="0" allow="pedestrian delivery bicycle" speed="5.56" length="7.38" shape="1034.55,3095.34 1033.31,3093.58 1032.21,3092.53 1030.84,3091.85 1028.78,3091.14"/>
    </edge>
    <edge id=":10009967307_1" function="internal">
        <lane id=":10009967307_1_0" index="0" allow="pedestrian delivery bicycle" speed="3.92" length="5.40" shape="1034.55,3095.34 1033.54,3093.88 1033.45,3092.79 1034.27,3092.06 1035.67,3091.76"/>
    </edge>
    <edge id=":10009967307_4" function="internal">
        <lane id=":10009967307_4_0" index="0" allow="pedestrian delivery bicycle" speed="3.92" length="0.35" shape="1035.67,3091.76 1036.01,3091.69"/>
    </edge>
    <edge id=":10009967307_2" function="internal">
        <lane id=":10009967307_2_0" index="0" allow="pedestrian delivery bicycle" speed="5.56" length="7.45" shape="1029.79,3088.10 1031.93,3088.71 1033.45,3089.18 1034.70,3090.01 1036.01,3091.69"/>
    </edge>
    <edge id=":10009967307_3" function="internal">
        <lane id=":10009967307_3_0" index="0" allow="pedestrian delivery bicycle" speed="3.65" length="1.44" shape="1029.79,3088.10 1030.68,3089.24"/>
    </edge>
    <edge id=":10009967307_5" function="internal">
        <lane id=":10009967307_5_0" index="0" allow="pedestrian delivery bicycle" speed="3.65" length="3.23" shape="1030.68,3089.24 1030.81,3090.12 1030.17,3090.76 1028.78,3091.14"/>
    </edge>
    <edge id=":10009967308_0" function="internal">
        <lane id=":10009967308_0_0" index="0" allow="pedestrian delivery bicycle" speed="5.56" length="6.35" shape="1034.89,3138.37 1033.38,3139.40 1032.16,3139.79 1030.82,3139.93 1028.95,3140.22"/>
    </edge>
    <edge id=":10009967308_1" function="internal">
        <lane id=":10009967308_1_0" index="0" allow="pedestrian delivery bicycle" speed="3.78" length="1.42" shape="1034.89,3138.37 1033.56,3137.89"/>
    </edge>
    <edge id=":10009967308_4" function="internal">
        <lane id=":10009967308_4_0" index="0" allow="pedestrian delivery bicycle" speed="3.78" length="3.77" shape="1033.56,3137.89 1033.38,3137.82 1032.74,3137.06 1032.96,3136.10 1034.05,3134.92"/>
    </edge>
    <edge id=":10009967308_2" function="internal">
        <lane id=":10009967308_2_0" index="0" allow="pedestrian delivery bicycle" speed="5.56" length="6.29" shape="1028.27,3137.10 1030.11,3136.75 1031.40,3136.50 1032.57,3135.99 1034.05,3134.92"/>
    </edge>
    <edge id=":10009967308_3" function="internal">
        <lane id=":10009967308_3_0" index="0" allow="pedestrian delivery bicycle" speed="3.65" length="1.44" shape="1028.27,3137.10 1029.61,3137.62"/>
    </edge>
    <edge id=":10009967308_5" function="internal">
        <lane id=":10009967308_5_0" index="0" allow="pedestrian delivery bicycle" speed="3.65" length="3.23" shape="1029.61,3137.62 1030.17,3138.32 1029.95,3139.19 1028.95,3140.22"/>
    </edge>
    <edge id=":10009967312_0" function="internal">
        <lane id=":10009967312_0_0" index="0" disallow="tram rail_urban rail rail_electric rail_fast ship" speed="27.78" length="4.55" shape="982.78,2641.41 978.23,2641.35"/>
    </edge>
    <edge id=":10009967312_1" function="internal">
        <lane id=":10009967312_1_0" index="0" disallow="tram rail_urban rail rail_electric rail_fast ship" speed="27.78" length="4.55" shape="978.27,2638.15 982.82,2638.21"/>
    </edge>
    <edge id=":10009967316_0" function="internal">
        <lane id=":10009967316_0_0" index="0" disallow="tram rail_urban rail rail_electric rail_fast ship" speed="13.89" length="4.98" shape="987.31,2652.05 987.37,2647.07"/>
    </edge>
    <edge id=":10009967317_0" function="internal">
        <lane id=":10009967317_0_0" index="0" disallow="tram rail_urban rail rail_electric rail_fast ship" speed="27.78" length="4.87" shape="1013.82,2647.34 1013.75,2652.21"/>
        <lane id=":10009967317_0_1" index="1" disallow="tram rail_urban rail rail_electric rail_fast ship" speed="27.78" length="4.87" shape="1010.63,2647.29 1010.55,2652.16"/>
    </edge>
    <edge id=":10009967317_2" function="internal">
        <lane id=":10009967317_2_0" index="0" disallow="tram rail_urban rail rail_electric rail_fast ship" speed="27.78" length="4.87" shape="1000.95,2652.01 1001.03,2647.13"/>
        <lane id=":10009967317_2_1" index="1" disallow="tram rail_urban rail rail_electric rail_fast ship" speed="27.78" length="4.87" shape="1004.15,2652.06 1004.23,2647.19"/>
        <lane id=":10009967317_2_2" index="2" disallow="tram rail_urban rail rail_electric rail_fast ship" speed="27.78" length="4.87" shape="1007.35,2652.11 1007.43,2647.24"/>
    </edge>
    <edge id=":10009967320_0" function="internal">
        <lane id=":10009967320_0_0" index="0" disallow="tram rail_urban rail rail_electric rail_fast ship" speed="13.89" length="4.67" shape="1031.76,2647.46 1031.69,2652.13"/>
    </edge>
    <edge id=":10009967341_0" function="internal">
        <lane id=":10009967341_0_0" index="0" disallow="tram rail_urban rail rail_electric rail_fast ship" speed="13.89" length="4.63" shape="979.27,2843.13 974.64,2843.07"/>
    </edge>
    <edge id=":10009967341_1" function="internal">
        <lane id=":10009967341_1_0" index="0" disallow="tram rail_urban rail rail_electric rail_fast ship" speed="13.89" length="4.63" shape="974.68,2839.87 979.32,2839.93"/>
    </edge>
    <edge id=":10009967342_0" function="internal">
        <lane id=":10009967342_0_0" index="0" disallow="tram rail_urban rail rail_electric rail_fast ship" speed="13.89" length="4.63" shape="976.36,3045.12 971.74,3045.06"/>
    </edge>
    <edge id=":10009967342_1" function="internal">
        <lane id=":10009967342_1_0" index="0" disallow="tram rail_urban rail rail_electric rail_fast ship" speed="13.89" length="4.62" shape="971.78,3041.86 976.41,3041.92"/>
    </edge>
    <edge id=":10009967349_0" function="internal">
        <lane id=":10009967349_0_0" index="0" disallow="tram rail_urban rail rail_electric rail_fast ship" speed="13.89" length="4.63" shape="984.81,2834.61 984.87,2829.98"/>
    </edge>
    <edge id=":10009967353_0" function="internal">
        <lane id=":10009967353_0_0" index="0" disallow="tram rail_urban rail rail_electric rail_fast ship" speed="13.89" length="4.55" shape="1029.25,2830.79 1029.18,2835.34"/>
    </edge>
    <edge id=":10009967358_0" function="internal">
        <lane id=":10009967358_0_0" index="0" disallow="tram rail_urban rail rail_electric rail_fast ship" speed="13.89" length="4.64" shape="984.57,2853.26 984.64,2848.62"/>
    </edge>
    <edge id=":10009967361_0" function="internal">
        <lane id=":10009967361_0_0" index="0" disallow="tram rail_urban rail rail_electric rail_fast ship" speed="13.89" length="4.57" shape="1028.98,2849.10 1028.92,2853.67"/>
    </edge>
    <edge id=":10009967362_0" function="internal">
        <lane id=":10009967362_0_0" index="0" disallow="tram rail_urban rail rail_electric rail_fast ship" speed="27.78" length="3.84" shape="1011.69,2848.90 1011.62,2852.74"/>
        <lane id=":10009967362_0_1" index="1" disallow="tram rail_urban rail rail_electric rail_fast ship" speed="27.78" length="3.84" shape="1008.49,2848.84 1008.42,2852.68"/>
    </edge>
    <edge id=":10009967362_2" function="internal">
        <lane id=":10009967362_2_0" index="0" disallow="tram rail_urban rail rail_electric rail_fast ship" speed="27.78" length="3.83" shape="1002.02,2852.56 1002.09,2848.73"/>
        <lane id=":10009967362_2_1" index="1" disallow="tram rail_urban rail rail_electric rail_fast ship" speed="27.78" length="3.83" shape="1005.22,2852.62 1005.29,2848.79"/>
    </edge>
    <edge id=":10009967368_0" function="internal">
        <lane id=":10009967368_0_0" index="0" disallow="tram rail_urban rail rail_electric rail_fast ship" speed="13.89" length="4.63" shape="982.09,3036.60 982.15,3031.97"/>
    </edge>
    <edge id=":10009967369_0" function="internal">
        <lane id=":10009967369_0_0" index="0" disallow="tram rail_urban rail rail_electric rail_fast ship" speed="27.78" length="4.83" shape="1011.69,3032.08 1011.63,3036.91"/>
        <lane id=":10009967369_0_1" index="1" disallow="tram rail_urban rail rail_electric rail_fast ship" speed="27.78" length="4.83" shape="1008.49,3032.03 1008.43,3036.87"/>
        <lane id=":10009967369_0_2" index="2" disallow="tram rail_urban rail rail_electric rail_fast ship" speed="27.78" length="4.83" shape="1005.30,3031.99 1005.23,3036.82"/>
    </edge>
    <edge id=":10009967369_3" function="internal">
        <lane id=":10009967369_3_0" index="0" disallow="tram rail_urban rail rail_electric rail_fast ship" speed="27.78" length="4.83" shape="998.83,3036.74 998.90,3031.91"/>
        <lane id=":10009967369_3_1" index="1" disallow="tram rail_urban rail rail_electric rail_fast ship" speed="27.78" length="4.83" shape="1002.03,3036.78 1002.10,3031.95"/>
    </edge>
    <edge id=":10009967372_0" function="internal">
        <lane id=":10009967372_0_0" index="0" disallow="tram rail_urban rail rail_electric rail_fast ship" speed="13.89" length="4.85" shape="1026.45,3032.31 1026.39,3037.16"/>
    </edge>
    <edge id=":10009967377_0" function="internal">
        <lane id=":10009967377_0_0" index="0" disallow="tram rail_urban rail rail_electric rail_fast ship" speed="13.89" length="4.39" shape="981.83,3054.70 981.89,3050.32"/>
    </edge>
    <edge id=":10009967378_0" function="internal">
        <lane id=":10009967378_0_0" index="0" disallow="tram rail_urban rail rail_electric rail_fast ship" speed="27.78" length="4.22" shape="1008.31,3050.56 1008.28,3054.78"/>
        <lane id=":10009967378_0_1" index="1" disallow="tram rail_urban rail rail_electric rail_fast ship" speed="27.78" length="4.22" shape="1005.11,3050.54 1005.08,3054.76"/>
    </edge>
    <edge id=":10009967378_2" function="internal">
        <lane id=":10009967378_2_0" index="0" disallow="tram rail_urban rail rail_electric rail_fast ship" speed="27.78" length="4.22" shape="995.48,3054.71 995.51,3050.50"/>
        <lane id=":10009967378_2_1" index="1" disallow="tram rail_urban rail rail_electric rail_fast ship" speed="27.78" length="4.22" shape="998.68,3054.73 998.71,3050.51"/>
        <lane id=":10009967378_2_2" index="2" disallow="tram rail_urban rail rail_electric rail_fast ship" speed="27.78" length="4.22" shape="1001.88,3054.74 1001.91,3050.53"/>
    </edge>
    <edge id=":10009967381_0" function="internal">
        <lane id=":10009967381_0_0" index="0" disallow="tram rail_urban rail rail_electric rail_fast ship" speed="13.89" length="4.14" shape="1026.21,3050.69 1026.16,3054.83"/>
    </edge>
    <edge id=":10009967409_0" function="internal">
        <lane id=":10009967409_0_0" index="0" disallow="tram rail_urban rail rail_electric rail_fast ship" speed="13.89" length="0.10" shape="1020.92,3436.93 1020.92,3436.93"/>
    </edge>
    <edge id=":10009967410_0" function="internal">
        <lane id=":10009967410_0_0" index="0" disallow="tram rail_urban rail rail_electric rail_fast ship" speed="13.89" length="0.10" shape="976.65,3436.56 976.65,3436.56"/>
    </edge>
    <edge id=":10026903559_0" function="internal">
        <lane id=":10026903559_0_0" index="0" allow="pedestrian delivery bicycle" speed="5.01" length="5.04" shape="1036.47,2495.53 1035.09,2495.68 1034.10,2496.23 1033.51,2497.20 1033.30,2498.57"/>
    </edge>
    <edge id=":10026903559_1" function="internal">
        <lane id=":10026903559_1_0" index="0" allow="pedestrian delivery bicycle" speed="3.65" length="4.67" shape="1036.47,2495.53 1035.30,2494.69 1034.92,2493.87 1035.35,2493.09 1036.58,2492.33"/>
    </edge>
    <edge id=":10026903559_2" function="internal">
        <lane id=":10026903559_2_0" index="0" allow="pedestrian delivery bicycle" speed="5.14" length="5.12" shape="1033.35,2489.17 1033.54,2490.51 1034.15,2491.48 1035.16,2492.09 1036.58,2492.33"/>
    </edge>
    <edge id=":10026903559_3" function="internal">
        <lane id=":10026903559_3_0" index="0" disallow="tram rail_urban rail rail_electric rail_fast ship" speed="13.89" length="9.40" shape="1033.35,2489.17 1033.30,2498.57"/>
    </edge>
    <edge id=":10026903560_0" function="internal">
        <lane id=":10026903560_0_0" index="0" allow="pedestrian delivery bicycle" speed="5.56" length="5.22" shape="1042.15,2495.80 1036.93,2495.55"/>
    </edge>
    <edge id=":10026903560_1" function="internal">
        <lane id=":10026903560_1_0" index="0" allow="pedestrian delivery bicycle" speed="3.65" length="1.44" shape="1042.15,2495.80 1041.00,2494.93"/>
    </edge>
    <edge id=":10026903560_4" function="internal">
        <lane id=":10026903560_4_0" index="0" allow="pedestrian delivery bicycle" speed="3.65" length="3.23" shape="1041.00,2494.93 1040.65,2494.10 1041.09,2493.33 1042.34,2492.61"/>
    </edge>
    <edge id=":10026903560_2" function="internal">
        <lane id=":10026903560_2_0" index="0" allow="pedestrian delivery bicycle" speed="5.56" length="5.31" shape="1037.04,2492.35 1042.34,2492.61"/>
    </edge>
    <edge id=":10026903560_3" function="internal">
        <lane id=":10026903560_3_0" index="0" allow="pedestrian delivery bicycle" speed="3.65" length="1.44" shape="1037.04,2492.35 1038.21,2493.19"/>
    </edge>
    <edge id=":10026903560_5" function="internal">
        <lane id=":10026903560_5_0" index="0" allow="pedestrian delivery bicycle" speed="3.65" length="3.23" shape="1038.21,2493.19 1038.58,2494.00 1038.16,2494.79 1036.93,2495.55"/>
    </edge>
    <edge id=":10026903565_0" function="internal">