<?xml version="1.0" encoding="UTF-8"?>

<!-- generated on 2023-10-04 11:10:09 by Eclipse SUMO polyconvert Version 1.18.0
<configuration xmlns:xsi="http://www.w3.org/2001/XMLSchema-instance" xsi:noNamespaceSchemaLocation="http://sumo.dlr.de/xsd/polyconvertConfiguration.xsd">

    <input>
        <net-file value="zhijiage.net.xml"/>
        <osm-files value="zhijiage.osm"/>
    </input>

    <output>
        <output-file value="zhijiage.poly.xml"/>
    </output>

</configuration>
-->

<additional xmlns:xsi="http://www.w3.org/2001/XMLSchema-instance" xsi:noNamespaceSchemaLocation="http://sumo.dlr.de/xsd/additional_file.xsd">
    <location netOffset="-447773.90,-4626156.20" convBoundary="-350.73,-0.00,2022.86,9465.27" origBoundary="-87.633569,41.785564,-87.604407,41.870780" projParameter="+proj=utm +zone=16 +ellps=WGS84 +datum=WGS84 +units=m +no_defs"/>

    <poly id="1040966209" type="building" color="255,230,230" fill="1" layer="-1.00" shape="717.073186,2982.584763 735.008600,2982.810661 735.249760,2977.090787 717.173128,2976.865907 717.073186,2982.584763"/>
    <poly id="1043256672" type="building" color="255,230,230" fill="1" layer="-1.00" shape="1280.016318,3088.799020 1286.378288,3088.698098 1286.424186,3083.490388 1280.178415,3083.579377 1280.016318,3088.799020"/>
    <poly id="1043256673" type="building" color="255,230,230" fill="1" layer="-1.00" shape="1301.089947,3094.666549 1307.451912,3094.565646 1307.497825,3089.357936 1301.252060,3089.446907 1301.089947,3094.666549"/>
    <poly id="1043256674" type="building" color="255,230,230" fill="1" layer="-1.00" shape="1308.402751,3095.114021 1314.764716,3095.013124 1314.810635,3089.805414 1308.564869,3089.894379 1308.402751,3095.114021"/>
    <poly id="1043256675" type="building" color="255,230,230" fill="1" layer="-1.00" shape="1382.193971,3137.890322 1395.860345,3138.237111 1396.485229,3125.674988 1382.543470,3125.152509 1382.193971,3137.890322"/>
    <poly id="1043256676" type="residential" color="235,235,227" fill="1" layer="-3.00" shape="1426.336459,3054.235714 1237.119826,3051.265751 1237.085910,3052.331897 1234.286377,3138.334785 1234.130242,3143.221292 1238.292132,3143.280385 1420.768982,3146.120661 1425.171817,3146.189251 1425.231336,3141.714255 1426.277174,3058.744018 1426.336459,3054.235714"/>
    <poly id="1043256682" type="commercial" color="209,209,204" fill="1" layer="-3.00" shape="1156.021433,3147.243928 1156.034435,3145.578360 1157.319963,3053.590550 1157.084466,3050.860856 1028.884258,3048.725875 1028.835227,3052.312550 1027.528585,3144.600347 1156.021433,3147.243928"/>
    <poly id="1043256683" type="residential" color="235,235,227" fill="1" layer="-3.00" shape="1082.786265,3240.213284 1220.642312,3242.235755 1223.531547,3156.032347 1224.126431,3138.152003 1226.975542,3053.292381 1227.050646,3051.015696 1157.084466,3050.860856 1157.319963,3053.590550 1156.034435,3145.578360 1156.021433,3147.243928 1163.753348,3155.193991 1163.816169,3198.806776 1111.826008,3197.469022 1083.359962,3198.561189 1082.786265,3240.213284"/>
    <poly id="1043276700" type="building" color="255,230,230" fill="1" layer="-1.00" shape="1373.236002,2883.192195 1380.198496,2883.409073 1380.399440,2876.634717 1373.437019,2876.428941 1373.236002,2883.192195"/>
    <poly id="1043276701" type="residential" color="235,235,227" fill="1" layer="-3.00" shape="1425.722915,3045.057770 1421.943127,3045.006950 1337.167456,3043.812143 1339.875892,2851.630495 1428.590445,2852.719618 1425.785045,3040.949160 1425.722915,3045.057770"/>
    <poly id="1043276702" type="building" color="255,230,230" fill="1" layer="-1.00" shape="1302.717306,3030.534190 1317.504652,3030.795112 1317.555158,3025.065522 1302.675801,3024.716430 1302.717306,3030.534190"/>
    <poly id="1043276703" type="building" color="255,230,230" fill="1" layer="-1.00" shape="1294.687369,3032.034893 1287.675100,3031.807353 1287.448700,3038.493071 1294.451309,3038.531926 1294.687369,3032.034893"/>
    <poly id="1043276704" type="landuse" color="194,194,130" fill="1" layer="-3.00" shape="1285.274709,2995.750318 1238.205932,2995.164824 1237.504916,3038.894079 1237.447314,3042.458605 1241.409839,3042.508022 1284.806411,3043.030914 1285.274709,2995.750318"/>
    <poly id="1043276705" type="residential" color="235,235,227" fill="1" layer="-3.00" shape="1284.806411,3043.030914 1327.611107,3043.258504 1330.322294,2851.498749 1242.560212,2850.026537 1242.433161,2854.335470 1238.205932,2995.164824 1285.274709,2995.750318 1284.806411,3043.030914"/>
    <poly id="1043276706" type="building" color="255,230,230" fill="1" layer="-1.00" shape="1273.889263,2981.008863 1280.808709,2981.026093 1280.826136,2976.484777 1274.372698,2976.586355 1273.889263,2981.008863"/>
    <poly id="1043276707" type="building" color="255,230,230" fill="1" layer="-1.00" shape="1090.364597,2984.408655 1090.310818,2990.815566 1096.558818,2991.026181 1096.611489,2984.463834 1090.364597,2984.408655"/>
    <poly id="1043276708" type="building" color="255,230,230" fill="1" layer="-1.00" shape="1071.239873,2992.084738 1071.186111,2998.491649 1077.434105,2998.702248 1077.486759,2992.139900 1071.239873,2992.084738"/>
    <poly id="1043276709" type="building" color="255,230,230" fill="1" layer="-1.00" shape="1071.668628,2999.753952 1071.614865,3006.160863 1077.862853,3006.371462 1077.915507,2999.809114 1071.668628,2999.753952"/>
    <poly id="1043276710" type="building" color="255,230,230" fill="1" layer="-1.00" shape="1071.357952,3008.560988 1071.304191,3014.967899 1077.552170,3015.178498 1077.604824,3008.616150 1071.357952,3008.560988"/>
    <poly id="1043276711" type="building" color="255,230,230" fill="1" layer="-1.00" shape="1139.347130,2985.434708 1139.293307,2991.841618 1145.541303,2992.052276 1145.594020,2985.489930 1139.347130,2985.434708"/>
    <poly id="1043276712" type="building" color="255,230,230" fill="1" layer="-1.00" shape="1154.372632,2986.459708 1154.318795,2992.866618 1160.566790,2993.077289 1160.619521,2986.514943 1154.372632,2986.459708"/>
    <poly id="1043276713" type="building" color="255,230,230" fill="1" layer="-1.00" shape="1161.936977,2984.895559 1161.883133,2991.302469 1168.131130,2991.513147 1168.183867,2984.950801 1161.936977,2984.895559"/>
    <poly id="1043276714" type="building" color="255,230,230" fill="1" layer="-1.00" shape="1170.408771,2987.100003 1170.354920,2993.506913 1176.602914,2993.717598 1176.655659,2987.155252 1170.408771,2987.100003"/>
    <poly id="1043276715" type="building" color="255,230,230" fill="1" layer="-1.00" shape="1167.078600,2998.815453 1167.024752,3005.222363 1173.272736,3005.433045 1173.325478,2998.870699 1167.078600,2998.815453"/>
    <poly id="1043276716" type="building" color="255,230,230" fill="1" layer="-1.00" shape="1041.771027,2992.451435 1061.368166,2992.743959 1061.232257,2998.118865 1041.634496,2997.737521 1041.771027,2992.451435"/>
    <poly id="1043276717" type="landuse" color="194,194,130" fill="1" layer="-3.00" shape="1030.029571,2974.470790 1083.322415,2975.376721 1083.526658,2949.393854 1030.432331,2948.397670 1030.029571,2974.470790"/>
    <poly id="1043276718" type="residential" color="235,235,227" fill="1" layer="-3.00" shape="1083.526658,2949.393854 1229.592627,2951.057985 1227.198992,3040.388911 1227.248240,3042.631398 1029.178370,3038.775328 1029.227004,3035.133141 1030.029571,2974.470790 1083.322415,2975.376721 1083.526658,2949.393854"/>
    <poly id="1043276719" type="building" color="255,230,230" fill="1" layer="-1.00" shape="1098.714838,2883.820804 1098.661048,2890.227714 1104.909136,2890.438337 1104.961818,2883.875991 1098.714838,2883.820804"/>
    <poly id="1043276720" type="building" color="255,230,230" fill="1" layer="-1.00" shape="1073.817048,2928.633894 1073.763281,2935.040804 1080.011331,2935.251405 1080.063989,2928.689058 1073.817048,2928.633894"/>
    <poly id="1043276721" type="residential" color="235,235,227" fill="1" layer="-3.00" shape="1030.923172,2938.079310 1229.375377,2941.577439 1232.480071,2854.095676 1232.604123,2850.530676 1228.068123,2850.452050 1031.326462,2847.219228 1030.923172,2938.079310"/>
    <poly id="1043276722" type="landuse" color="194,194,130" fill="1" layer="-3.00" shape="1085.606376,2748.078634 1036.938322,2747.117288 1033.083453,2747.045003 1031.611251,2837.124411 1084.270980,2837.635191 1085.194933,2792.682976 1085.606376,2748.078634"/>
    <poly id="1043276723" type="residential" color="235,235,227" fill="1" layer="-3.00" shape="1084.270980,2837.635191 1232.324212,2840.417699 1234.368026,2840.469718 1232.949540,2753.531028 1232.889983,2749.845206 1230.048813,2749.809986 1085.606376,2748.078634 1085.194933,2792.682976 1084.270980,2837.635191"/>
    <poly id="1043289782" type="building" color="255,230,230" fill="1" layer="-1.00" shape="1256.420956,2834.471958 1287.183704,2834.907454 1287.379362,2822.748102 1256.330739,2821.837209 1256.420956,2834.471958"/>
    <poly id="1043289783" type="building" color="255,230,230" fill="1" layer="-1.00" shape="1308.101524,2831.638228 1314.350129,2831.915650 1314.810731,2814.968950 1308.367354,2815.336899 1308.101524,2831.638228"/>
    <poly id="1043289784" type="building" color="255,230,230" fill="1" layer="-1.00" shape="1315.387945,2833.007461 1321.636468,2833.273787 1322.097087,2816.327087 1315.662018,2816.694971 1315.387945,2833.007461"/>
    <poly id="1043289785" type="building" color="255,230,230" fill="1" layer="-1.00" shape="1308.870998,2800.932514 1308.809336,2806.262469 1313.984947,2806.336585 1314.054919,2801.006571 1308.870998,2800.932514"/>
    <poly id="1043289786" type="building" color="255,230,230" fill="1" layer="-1.00" shape="1282.060334,2808.396370 1281.998692,2813.726325 1287.174298,2813.800421 1287.244250,2808.470407 1282.060334,2808.396370"/>
    <poly id="1043289787" type="building" color="255,230,230" fill="1" layer="-1.00" shape="1347.019052,2801.437731 1346.957361,2806.767684 1352.132970,2806.841828 1352.202971,2801.511815 1347.019052,2801.437731"/>
    <poly id="1043289788" type="residential" color="235,235,227" fill="1" layer="-3.00" shape="1429.552357,2752.096007 1425.664431,2752.045952 1247.509488,2749.785200 1244.560335,2749.750746 1244.640939,2754.058195 1246.186257,2836.676850 1246.251259,2839.962921 1249.881646,2840.014716 1424.639293,2842.610557 1428.444186,2842.672305 1428.487171,2839.374363 1429.501132,2756.570942 1429.552357,2752.096007"/>
    <poly id="1043289789" type="landuse" color="194,194,130" fill="1" layer="-3.00" shape="1086.868183,2648.241092 1035.422750,2648.132379 1033.609041,2705.659754 1086.154085,2706.260211 1086.868183,2648.241092"/>
    <poly id="1043289790" type="landuse" color="194,194,130" fill="1" layer="-3.00" shape="1086.868183,2648.241092 1226.806189,2650.559839 1231.117962,2650.628965 1232.258293,2692.812808 1183.304016,2692.529795 1086.363706,2691.458199 1086.868183,2648.241092"/>
    <poly id="1043289791" type="building" color="255,230,230" fill="1" layer="-1.00" shape="1134.512351,2696.398536 1134.450816,2701.728492 1139.626506,2701.802482 1139.696351,2696.472467 1134.512351,2696.398536"/>
    <poly id="1043289792" type="residential" color="235,235,227" fill="1" layer="-3.00" shape="1232.258293,2692.812808 1232.954435,2735.610499 1233.012246,2739.052065 1229.722527,2739.020050 1033.807693,2736.836004 1033.609041,2705.659754 1086.154085,2706.260211 1086.363706,2691.458199 1133.234681,2691.977520 1183.304016,2692.529795 1232.258293,2692.812808"/>
    <poly id="1043289793" type="landuse" color="194,194,130" fill="1" layer="-3.00" shape="1289.044816,2694.106167 1288.858721,2706.443099 1243.221082,2705.292173 1240.853207,2649.404700 1244.899253,2649.486836 1430.569923,2653.448378 1429.709779,2693.670107 1383.426010,2693.944085 1289.044816,2694.106167"/>
    <poly id="1043289794" type="residential" color="235,235,227" fill="1" layer="-3.00" shape="1243.221082,2705.292173 1244.612537,2739.613192 1247.046620,2739.640221 1425.880410,2741.540834 1428.738194,2741.576013 1428.806810,2738.377817 1429.709779,2693.670107 1383.426010,2693.944085 1289.044816,2694.106167 1288.858721,2706.443099 1243.221082,2705.292173"/>
    <poly id="1043289840" type="landuse" color="194,194,130" fill="1" layer="-3.00" shape="1339.658335,2600.867333 1339.099530,2636.678979 1339.071293,2638.544510 1429.440626,2638.333924 1429.472521,2636.979113 1430.256451,2601.221395 1385.322884,2601.041617 1339.658335,2600.867333"/>
    <poly id="1043289841" type="residential" color="235,235,227" fill="1" layer="-3.00" shape="1339.658335,2600.867333 1342.128367,2450.923899 1342.174879,2448.125574 1431.375601,2449.122520 1430.256451,2601.221395 1385.322884,2601.041617 1339.658335,2600.867333"/>
    <poly id="1043289844" type="parking" color="184,184,179" fill="1" layer="-1.00" shape="1245.980353,2549.617355 1272.415884,2549.983782 1272.491762,2544.320633 1282.086672,2544.363188 1282.876193,2499.012285 1246.173457,2498.719128 1245.980353,2549.617355"/>
    <poly id="1043289845" type="residential" color="235,235,227" fill="1" layer="-3.00" shape="1330.156815,2448.455511 1327.182381,2448.387892 1239.785023,2446.335671 1239.809464,2450.921098 1240.717144,2602.439331 1284.626337,2603.413832 1328.498645,2603.878121 1330.116798,2452.164248 1330.156815,2448.455511"/>
    <poly id="1043289846" type="landuse" color="194,194,130" fill="1" layer="-3.00" shape="1240.717144,2602.439331 1239.727314,2634.823197 1239.659950,2637.022103 1329.843975,2638.776838 1329.741992,2636.123912 1328.498645,2603.878121 1240.717144,2602.439331"/>
    <poly id="1043289847" type="landuse" color="194,194,130" fill="1" layer="-3.00" shape="1035.319149,2579.238022 1034.450333,2634.160475 1229.359667,2637.062368 1229.384623,2634.741630 1229.773005,2601.895726 1222.550189,2601.325550 1161.290738,2599.609472 1146.376788,2596.873761 1142.328380,2592.983315 1142.200408,2580.903998 1129.314002,2580.585404 1038.957899,2579.278550 1035.319149,2579.238022"/>
    <poly id="1043289848" type="residential" color="235,235,227" fill="1" layer="-3.00" shape="1229.773005,2601.895726 1229.325231,2447.343045 1225.229309,2447.272376 1037.034208,2444.222440 1035.319149,2579.238022 1038.957899,2579.278550 1129.314002,2580.585404 1142.200408,2580.903998 1142.328380,2592.983315 1146.376788,2596.873761 1161.290738,2599.609472 1183.513093,2599.783642 1222.550189,2601.325550 1229.773005,2601.895726"/>
    <poly id="1043289900" type="building" color="255,230,230" fill="1" layer="-1.00" shape="1383.788499,2382.087366 1377.392671,2382.188432 1377.473269,2387.672812 1383.877398,2387.571687 1383.788499,2382.087366"/>
    <poly id="1043289905" type="building" color="255,230,230" fill="1" layer="-1.00" shape="1378.334559,2297.486931 1378.118322,2303.284312 1384.367938,2303.639518 1384.584259,2297.853239 1378.334559,2297.486931"/>
    <poly id="1043289908" type="building" color="255,230,230" fill="1" layer="-1.00" shape="1379.719110,2258.604962 1379.502870,2264.402343 1385.752520,2264.757550 1385.968844,2258.971272 1379.719110,2258.604962"/>
    <poly id="1043289914" type="residential" color="235,235,227" fill="1" layer="-3.00" shape="1433.594325,2247.218265 1430.196550,2247.209129 1344.704215,2247.029567 1344.669962,2250.382961 1342.762106,2438.439443 1428.055237,2438.964560 1431.444693,2438.984856 1431.480564,2435.853514 1433.549498,2251.426675 1433.594325,2247.218265"/>
    <poly id="1043289915" type="building" color="255,230,230" fill="1" layer="-1.00" shape="1296.006198,2410.026789 1289.610395,2410.127934 1289.543678,2415.913151 1295.948891,2415.967383 1296.006198,2410.026789"/>
    <poly id="1043289916" type="building" color="255,230,230" fill="1" layer="-1.00" shape="1295.381427,2426.086399 1288.985639,2426.187545 1288.918923,2431.972762 1295.324122,2432.026993 1295.381427,2426.086399"/>
    <poly id="1043289917" type="building" color="255,230,230" fill="1" layer="-1.00" shape="1284.063287,2311.460527 1277.667396,2311.561683 1277.600685,2317.346898 1284.005987,2317.401120 1284.063287,2311.460527"/>
    <poly id="1043289918" type="residential" color="235,235,227" fill="1" layer="-3.00" shape="1331.028983,2437.956818 1239.185995,2436.902271 1239.686942,2244.159133 1241.506480,2244.190552 1329.135501,2245.763746 1332.475525,2245.828762 1332.439856,2250.148140 1331.028983,2437.956818"/>
    <poly id="1043289919" type="building" color="255,230,230" fill="1" layer="-1.00" shape="1110.315316,2392.545150 1103.919497,2392.646461 1103.852930,2398.431681 1110.258163,2398.485746 1110.315316,2392.545150"/>
    <poly id="1043289920" type="building" color="255,230,230" fill="1" layer="-1.00" shape="1118.433815,2392.875638 1112.037997,2392.976942 1111.971423,2398.762161 1118.376656,2398.816234 1118.433815,2392.875638"/>
    <poly id="1043289921" type="building" color="255,230,230" fill="1" layer="-1.00" shape="1125.816709,2392.567418 1119.420891,2392.668715 1119.354311,2398.453934 1125.759544,2398.508013 1125.816709,2392.567418"/>
    <poly id="1043289922" type="building" color="255,230,230" fill="1" layer="-1.00" shape="1133.532749,2392.378955 1127.136930,2392.480246 1127.070344,2398.265465 1133.475576,2398.319551 1133.532749,2392.378955"/>
    <poly id="1043289923" type="building" color="255,230,230" fill="1" layer="-1.00" shape="1141.384954,2392.644756 1134.989135,2392.746040 1134.922543,2398.531259 1141.327775,2398.585352 1141.384954,2392.644756"/>
    <poly id="1043289924" type="building" color="255,230,230" fill="1" layer="-1.00" shape="1172.993368,2393.739929 1166.597550,2393.841184 1166.530932,2399.626403 1172.936163,2399.680524 1172.993368,2393.739929"/>
    <poly id="1043289925" type="building" color="255,230,230" fill="1" layer="-1.00" shape="1086.211786,2400.056951 1079.815975,2400.158284 1079.749427,2405.943504 1086.154654,2405.997548 1086.211786,2400.056951"/>
    <poly id="1043289926" type="building" color="255,230,230" fill="1" layer="-1.00" shape="1105.709932,2375.856777 1110.652474,2375.821388 1111.448180,2354.686392 1106.506100,2354.788395 1105.709932,2375.856777"/>
    <poly id="1043289927" type="building" color="255,230,230" fill="1" layer="-1.00" shape="1099.416889,2381.031497 1093.021060,2381.132818 1092.954501,2386.918037 1099.359744,2386.972093 1099.416889,2381.031497"/>
    <poly id="1043289928" type="residential" color="235,235,227" fill="1" layer="-3.00" shape="1227.427112,2345.596233 1039.857440,2343.252315 1037.342282,2433.894296 1228.428315,2436.912490 1227.427112,2345.596233"/>
    <poly id="1043289929" type="landuse" color="194,194,130" fill="1" layer="-3.00" shape="1041.178033,2428.959200 1087.279645,2429.683620 1087.465257,2406.887515 1041.014693,2406.176697 1041.178033,2428.959200"/>
    <poly id="1043289930" type="landuse" color="194,194,130" fill="1" layer="-3.00" shape="1038.782840,2303.444111 1091.242250,2304.433877 1091.284275,2294.063232 1091.311087,2287.367840 1110.412617,2287.786214 1111.262601,2242.901193 1038.924293,2242.064869 1038.917890,2245.806677 1038.782840,2303.444111"/>
    <poly id="1043289931" type="building" color="255,230,230" fill="1" layer="-1.00" shape="1099.625858,2290.728063 1099.569824,2296.824095 1103.831018,2296.760272 1103.896395,2290.808514 1099.625858,2290.728063"/>
    <poly id="1043289932" type="residential" color="235,235,227" fill="1" layer="-3.00" shape="1111.262601,2242.901193 1223.279297,2244.076468 1226.610779,2244.108186 1226.617898,2248.593807 1226.834286,2334.708279 1039.051641,2331.666399 1038.782840,2303.444111 1091.242250,2304.433877 1091.284275,2294.063232 1091.311087,2287.367840 1110.412617,2287.786214 1111.262601,2242.901193"/>
    <poly id="1043322988" type="landuse" color="194,194,130" fill="1" layer="-3.00" shape="1344.069339,2635.833024 1425.173485,2636.365722 1425.167135,2603.955675 1343.832014,2602.536366 1344.069339,2635.833024"/>
    <poly id="1044136195" type="leisure" color="207,245,201" fill="1" layer="-2.00" shape="133.434670,3082.063444 144.600421,3082.326162 144.588576,3089.809798 133.490743,3089.746442 133.434670,3082.063444"/>
    <poly id="1044136196" type="school" color="237,199,199" fill="1" layer="-2.00" shape="205.215043,3058.756195 201.576364,3058.693890 129.982623,3057.495074 129.874848,3063.214003 129.199676,3100.447926 167.130846,3101.015016 178.419860,3101.099235 178.776217,3087.317580 204.609742,3087.395728 205.097930,3064.341952 205.215043,3058.756195"/>
    <poly id="1044136197" type="residential" color="235,235,227" fill="1" layer="-3.00" shape="204.609742,3087.395728 203.308660,3225.706537 203.274230,3228.960022 199.195673,3228.934235 131.006712,3228.532255 127.592699,3228.512761 127.640870,3224.870563 129.199676,3100.447926 167.130846,3101.015016 178.419860,3101.099235 178.776217,3087.317580 204.609742,3087.395728"/>
    <poly id="1044136198" type="building" color="255,230,230" fill="1" layer="-1.00" shape="135.506670,3145.169959 136.754289,3104.423248 149.329101,3104.275975 148.323982,3145.254080 135.506670,3145.169959"/>
    <poly id="1044407073" type="landuse" color="194,194,130" fill="1" layer="-3.00" shape="341.886639,3061.814089 336.170979,3061.700194 229.259667,3059.546973 224.914736,3059.456491 224.871204,3063.742639 224.392364,3107.470480 229.351907,3107.556484 250.394681,3107.925071 258.992876,3108.073426 334.059083,3109.403726 341.361302,3109.528292 341.857544,3064.667819 341.886639,3061.814089"/>
    <poly id="1044407074" type="landuse" color="194,194,130" fill="1" layer="-3.00" shape="229.351907,3107.556484 230.360121,3064.657526 259.852810,3065.319897 258.992876,3108.073426 250.394681,3107.925071 229.351907,3107.556484"/>
    <poly id="1044407075" type="parking" color="184,184,179" fill="1" layer="-1.00" shape="250.130560,3119.563135 250.394681,3107.925071 258.992876,3108.073426 334.059083,3109.403726 333.424583,3195.791125 285.471856,3195.718003 287.261896,3119.814693 276.812462,3119.813016 250.130560,3119.563135"/>
    <poly id="1044407076" type="school" color="237,199,199" fill="1" layer="-2.00" shape="224.392364,3107.470480 223.572712,3195.624666 228.340593,3195.634343 277.879826,3195.706637 284.375403,3195.714879 333.424583,3195.791125 339.945077,3195.799237 341.361302,3109.528292 334.059083,3109.403726 258.992876,3108.073426 250.394681,3107.925071 229.351907,3107.556484 224.392364,3107.470480"/>
    <poly id="1044407081" type="landuse" color="194,194,130" fill="1" layer="-3.00" shape="416.340827,3135.542463 474.885998,3135.817242 477.206516,3066.350018 477.295981,3063.795638 471.189783,3063.662259 417.197889,3062.510609 416.340827,3135.542463"/>
    <poly id="1044407082" type="residential" color="235,235,227" fill="1" layer="-3.00" shape="417.197889,3062.510609 363.400397,3061.824287 357.502247,3061.745010 357.459842,3065.054067 355.467648,3230.972338 361.124629,3231.031158 469.005657,3232.113374 474.729080,3232.171801 474.735898,3228.529907 474.885998,3135.817242 416.340827,3135.542463 417.197889,3062.510609"/>
    <poly id="1044407084" type="landuse" color="194,194,130" fill="1" layer="-3.00" shape="551.646839,3063.789934 492.782807,3063.150423 492.602936,3092.197647 551.352615,3093.137767 551.646839,3063.789934"/>
    <poly id="1044407085" type="residential" color="235,235,227" fill="1" layer="-3.00" shape="551.646839,3063.789934 605.380958,3064.911156 610.839122,3065.027129 610.804825,3068.325021 609.318602,3230.364457 609.285593,3233.839992 603.097049,3233.784821 490.049971,3232.749127 490.120508,3228.729263 492.602936,3092.197647 551.352615,3093.137767 551.646839,3063.789934"/>
    <poly id="1044407088" type="building" color="255,230,230" fill="1" layer="-1.00" shape="675.538792,3118.054663 675.469305,3123.384690 682.788591,3123.576101 682.848656,3118.090698 675.538792,3118.054663"/>
    <poly id="1044407089" type="building" color="255,230,230" fill="1" layer="-1.00" shape="675.900043,3110.568513 675.830555,3115.898539 683.149850,3116.089951 683.209914,3110.604548 675.900043,3110.568513"/>
    <poly id="1044407094" type="building" color="255,230,230" fill="1" layer="-1.00" shape="638.223437,3123.365108 654.289429,3123.570999 654.332582,3116.897678 638.382938,3116.702048 638.223437,3123.365108"/>
    <poly id="1044407095" type="building" color="255,230,230" fill="1" layer="-1.00" shape="638.525384,3115.723939 654.458819,3115.975202 654.634546,3109.256510 638.684886,3109.060880 638.525384,3115.723939"/>
    <poly id="1044407096" type="residential" color="235,235,227" fill="1" layer="-3.00" shape="746.635891,3044.749119 740.073336,3044.685421 633.743291,3043.654472 628.717506,3043.601975 628.312253,3067.976377 626.402089,3182.919181 685.714101,3183.623163 684.829363,3234.792996 744.315192,3235.473996 744.353072,3232.664619 746.588443,3048.535643 746.635891,3044.749119"/>
    <poly id="1044407097" type="landuse" color="194,194,130" fill="1" layer="-3.00" shape="767.651569,3080.516346 811.574066,3081.421177 811.893788,3050.851841 767.980370,3050.080177 767.651569,3080.516346"/>
    <poly id="1044407098" type="landuse" color="194,194,130" fill="1" layer="-3.00" shape="821.621167,3050.926121 863.274535,3051.603345 862.927992,3109.642115 821.251563,3109.176025 821.621167,3050.926121"/>
    <poly id="1044407100" type="residential" color="235,235,227" fill="1" layer="-3.00" shape="758.804185,3235.880248 865.366118,3237.222233 868.042742,3050.492028 868.109022,3045.850426 768.540464,3044.813235 761.795096,3044.739732 761.733429,3048.859454 758.844312,3233.381744 758.804185,3235.880248"/>
    <poly id="1044407101" type="building" color="255,230,230" fill="1" layer="-1.00" shape="886.861723,3111.224228 905.676353,3111.322091 905.793853,3105.714145 887.058833,3105.138272 886.861723,3111.224228"/>
    <poly id="1044407102" type="building" color="255,230,230" fill="1" layer="-1.00" shape="887.488827,3103.713973 907.640734,3103.802223 907.758156,3098.183175 887.677552,3097.616975 887.488827,3103.713973"/>
    <poly id="1044407103" type="building" color="255,230,230" fill="1" layer="-1.00" shape="920.946943,3103.717670 920.971573,3097.899432 915.007499,3097.886788 914.991179,3103.704966 920.946943,3103.717670"/>
    <poly id="1044407104" type="building" color="255,230,230" fill="1" layer="-1.00" shape="921.003206,3111.545001 921.027836,3105.726762 915.063767,3105.714118 915.047448,3111.532297 921.003206,3111.545001"/>
    <poly id="1044407105" type="building" color="255,230,230" fill="1" layer="-1.00" shape="883.973903,3067.731673 902.782977,3068.195974 902.900396,3062.576926 884.165263,3062.001060 883.973903,3067.731673"/>
    <poly id="1044407106" type="building" color="255,230,230" fill="1" layer="-1.00" shape="884.374831,3059.956570 903.001193,3060.422186 903.118612,3054.803138 884.391765,3054.227212 884.374831,3059.956570"/>
    <poly id="1044407107" type="residential" color="235,235,227" fill="1" layer="-3.00" shape="974.934760,3238.555322 877.012038,3237.304986 879.404725,3046.857271 882.519800,3046.879275 977.982725,3047.614436 977.907829,3052.222789 974.987509,3235.490468 974.934760,3238.555322"/>
    <poly id="1044407108" type="parking" color="184,184,179" fill="1" layer="-1.00" shape="230.875060,3032.721010 279.847558,3033.519172 279.421821,3048.067443 230.800864,3047.622027 230.875060,3032.721010"/>
    <poly id="1044407109" type="parking" color="184,184,179" fill="1" layer="-1.00" shape="254.221367,2999.197014 231.252476,2999.008988 230.872230,3020.929447 254.033383,3021.293722 254.221367,2999.197014"/>
    <poly id="1044407110" type="landuse" color="194,194,130" fill="1" layer="-3.00" shape="283.225739,2989.792453 280.924630,2989.764785 231.431136,2989.325709 225.990001,2989.276520 225.826235,3045.470939 225.813823,3049.468176 282.411778,3050.299630 283.225739,2989.792453"/>
    <poly id="1044407111" type="industrial" color="209,209,204" fill="1" layer="-3.00" shape="284.781063,2873.630735 227.578670,2873.258873 227.475660,2837.451857 285.265823,2837.508557 284.981107,2858.884253 284.781063,2873.630735"/>
    <poly id="1044407112" type="residential" color="235,235,227" fill="1" layer="-3.00" shape="285.265823,2837.508557 345.821882,2837.534518 345.826245,2839.277686 345.826498,2859.885186 284.981107,2858.884253 285.265823,2837.508557"/>
    <poly id="1044407113" type="residential" color="235,235,227" fill="1" layer="-3.00" shape="227.578670,2873.258873 227.599325,2919.425762 231.096627,2919.455802 281.520249,2919.799290 284.161934,2919.824480 284.781063,2873.630735 227.578670,2873.258873"/>
    <poly id="1044407114" type="landuse" color="194,194,130" fill="1" layer="-3.00" shape="231.096627,2919.455802 231.431136,2989.325709 280.924630,2989.764785 281.520249,2919.799290 231.096627,2919.455802"/>
    <poly id="1044407115" type="residential" color="235,235,227" fill="1" layer="-3.00" shape="283.088863,2999.519838 342.394092,3000.209939 342.446702,3049.729754 342.451631,3051.550641 282.411778,3050.299630 282.556456,3039.361940 283.088863,2999.519838"/>
    <poly id="1044407116" type="landuse" color="194,194,130" fill="1" layer="-3.00" shape="283.088863,2999.519838 283.225739,2989.792453 284.161934,2919.824480 284.781063,2873.630735 284.981107,2858.884253 345.826498,2859.885186 342.394092,3000.209939 283.088863,2999.519838"/>
    <poly id="1044407117" type="building" color="255,230,230" fill="1" layer="-1.00" shape="401.482579,2905.836672 401.427159,2911.932720 407.831947,2911.986151 407.887373,2905.890103 401.482579,2905.836672"/>
    <poly id="1044407118" type="building" color="255,230,230" fill="1" layer="-1.00" shape="408.448183,2920.209134 408.460298,2935.609157 414.865064,2935.662594 415.617856,2920.356948 408.448183,2920.209134"/>
    <poly id="1044407119" type="building" color="255,230,230" fill="1" layer="-1.00" shape="423.105008,2882.984822 423.049568,2889.080870 435.711041,2889.377606 435.465374,2882.995060 423.105008,2882.984822"/>